54

Ag	0.000000	0.000000	0.000000
I	1.588750	1.588750	1.588750
Ag	3.177500	3.177500	0.000000
I	4.766250	4.766250	1.588750
Ag	6.355000	6.355000	0.000000
I	7.943750	7.943750	1.588750
Ag	3.177500	0.000000	3.177500
I	4.766250	1.588750	4.766250
Ag	6.355000	3.177500	3.177500
I	7.943750	4.766250	4.766250
Ag	9.532500	6.355000	3.177500
I	11.121250	7.943750	4.766250
Ag	6.355000	0.000000	6.355000
I	7.943750	1.588750	7.943750
Ag	9.532500	3.177500	6.355000
I	11.121250	4.766250	7.943750
Ag	12.710000	6.355000	6.355000
I	14.298750	7.943750	7.943750
Ag	0.000000	3.177500	3.177500
I	1.588750	4.766250	4.766250
Ag	3.177500	6.355000	3.177500
I	4.766250	7.943750	4.766250
Ag	6.355000	9.532500	3.177500
I	7.943750	11.121250	4.766250
Ag	3.177500	3.177500	6.355000
I	4.766250	4.766250	7.943750
Ag	6.355000	6.355000	6.355000
I	7.943750	7.943750	7.943750
Ag	9.532500	9.532500	6.355000
I	11.121250	11.121250	7.943750
Ag	6.355000	3.177500	9.532500
I	7.943750	4.766250	11.121250
Ag	9.532500	6.355000	9.532500
I	11.121250	7.943750	11.121250
Ag	12.710000	9.532500	9.532500
I	14.298750	11.121250	11.121250
Ag	0.000000	6.355000	6.355000
I	1.588750	7.943750	7.943750
Ag	3.177500	9.532500	6.355000
I	4.766250	11.121250	7.943750
Ag	6.355000	12.710000	6.355000
I	7.943750	14.298750	7.943750
Ag	3.177500	6.355000	9.532500
I	4.766250	7.943750	11.121250
Ag	6.355000	9.532500	9.532500
I	7.943750	11.121250	11.121250
Ag	9.532500	12.710000	9.532500
I	11.121250	14.298750	11.121250
Ag	6.355000	6.355000	12.710000
I	7.943750	7.943750	14.298750
Ag	9.532500	9.532500	12.710000
I	11.121250	11.121250	14.298750
Ag	12.710000	12.710000	12.710000
I	14.298750	14.298750	14.298750
