54

Al	0.000000	0.000000	0.000000
As	1.408000	1.408000	1.408000
Al	2.816000	2.816000	0.000000
As	4.224000	4.224000	1.408000
Al	5.632000	5.632000	0.000000
As	7.040000	7.040000	1.408000
Al	2.816000	0.000000	2.816000
As	4.224000	1.408000	4.224000
Al	5.632000	2.816000	2.816000
As	7.040000	4.224000	4.224000
Al	8.448000	5.632000	2.816000
As	9.856000	7.040000	4.224000
Al	5.632000	0.000000	5.632000
As	7.040000	1.408000	7.040000
Al	8.448000	2.816000	5.632000
As	9.856000	4.224000	7.040000
Al	11.264000	5.632000	5.632000
As	12.672000	7.040000	7.040000
Al	0.000000	2.816000	2.816000
As	1.408000	4.224000	4.224000
Al	2.816000	5.632000	2.816000
As	4.224000	7.040000	4.224000
Al	5.632000	8.448000	2.816000
As	7.040000	9.856000	4.224000
Al	2.816000	2.816000	5.632000
As	4.224000	4.224000	7.040000
Al	5.632000	5.632000	5.632000
As	7.040000	7.040000	7.040000
Al	8.448000	8.448000	5.632000
As	9.856000	9.856000	7.040000
Al	5.632000	2.816000	8.448000
As	7.040000	4.224000	9.856000
Al	8.448000	5.632000	8.448000
As	9.856000	7.040000	9.856000
Al	11.264000	8.448000	8.448000
As	12.672000	9.856000	9.856000
Al	0.000000	5.632000	5.632000
As	1.408000	7.040000	7.040000
Al	2.816000	8.448000	5.632000
As	4.224000	9.856000	7.040000
Al	5.632000	11.264000	5.632000
As	7.040000	12.672000	7.040000
Al	2.816000	5.632000	8.448000
As	4.224000	7.040000	9.856000
Al	5.632000	8.448000	8.448000
As	7.040000	9.856000	9.856000
Al	8.448000	11.264000	8.448000
As	9.856000	12.672000	9.856000
Al	5.632000	5.632000	11.264000
As	7.040000	7.040000	12.672000
Al	8.448000	8.448000	11.264000
As	9.856000	9.856000	12.672000
Al	11.264000	11.264000	11.264000
As	12.672000	12.672000	12.672000
