54

Al	0.000000	0.000000	0.000000
Sb	1.528000	1.528000	1.528000
Al	3.056000	3.056000	0.000000
Sb	4.584000	4.584000	1.528000
Al	6.112000	6.112000	0.000000
Sb	7.640000	7.640000	1.528000
Al	3.056000	0.000000	3.056000
Sb	4.584000	1.528000	4.584000
Al	6.112000	3.056000	3.056000
Sb	7.640000	4.584000	4.584000
Al	9.168000	6.112000	3.056000
Sb	10.696000	7.640000	4.584000
Al	6.112000	0.000000	6.112000
Sb	7.640000	1.528000	7.640000
Al	9.168000	3.056000	6.112000
Sb	10.696000	4.584000	7.640000
Al	12.224000	6.112000	6.112000
Sb	13.752000	7.640000	7.640000
Al	0.000000	3.056000	3.056000
Sb	1.528000	4.584000	4.584000
Al	3.056000	6.112000	3.056000
Sb	4.584000	7.640000	4.584000
Al	6.112000	9.168000	3.056000
Sb	7.640000	10.696000	4.584000
Al	3.056000	3.056000	6.112000
Sb	4.584000	4.584000	7.640000
Al	6.112000	6.112000	6.112000
Sb	7.640000	7.640000	7.640000
Al	9.168000	9.168000	6.112000
Sb	10.696000	10.696000	7.640000
Al	6.112000	3.056000	9.168000
Sb	7.640000	4.584000	10.696000
Al	9.168000	6.112000	9.168000
Sb	10.696000	7.640000	10.696000
Al	12.224000	9.168000	9.168000
Sb	13.752000	10.696000	10.696000
Al	0.000000	6.112000	6.112000
Sb	1.528000	7.640000	7.640000
Al	3.056000	9.168000	6.112000
Sb	4.584000	10.696000	7.640000
Al	6.112000	12.224000	6.112000
Sb	7.640000	13.752000	7.640000
Al	3.056000	6.112000	9.168000
Sb	4.584000	7.640000	10.696000
Al	6.112000	9.168000	9.168000
Sb	7.640000	10.696000	10.696000
Al	9.168000	12.224000	9.168000
Sb	10.696000	13.752000	10.696000
Al	6.112000	6.112000	12.224000
Sb	7.640000	7.640000	13.752000
Al	9.168000	9.168000	12.224000
Sb	10.696000	10.696000	13.752000
Al	12.224000	12.224000	12.224000
Sb	13.752000	13.752000	13.752000
