54

B	0.000000	0.000000	0.000000
As	1.183500	1.183500	1.183500
B	2.367000	2.367000	0.000000
As	3.550500	3.550500	1.183500
B	4.734000	4.734000	0.000000
As	5.917500	5.917500	1.183500
B	2.367000	0.000000	2.367000
As	3.550500	1.183500	3.550500
B	4.734000	2.367000	2.367000
As	5.917500	3.550500	3.550500
B	7.101000	4.734000	2.367000
As	8.284500	5.917500	3.550500
B	4.734000	0.000000	4.734000
As	5.917500	1.183500	5.917500
B	7.101000	2.367000	4.734000
As	8.284500	3.550500	5.917500
B	9.468000	4.734000	4.734000
As	10.651500	5.917500	5.917500
B	0.000000	2.367000	2.367000
As	1.183500	3.550500	3.550500
B	2.367000	4.734000	2.367000
As	3.550500	5.917500	3.550500
B	4.734000	7.101000	2.367000
As	5.917500	8.284500	3.550500
B	2.367000	2.367000	4.734000
As	3.550500	3.550500	5.917500
B	4.734000	4.734000	4.734000
As	5.917500	5.917500	5.917500
B	7.101000	7.101000	4.734000
As	8.284500	8.284500	5.917500
B	4.734000	2.367000	7.101000
As	5.917500	3.550500	8.284500
B	7.101000	4.734000	7.101000
As	8.284500	5.917500	8.284500
B	9.468000	7.101000	7.101000
As	10.651500	8.284500	8.284500
B	0.000000	4.734000	4.734000
As	1.183500	5.917500	5.917500
B	2.367000	7.101000	4.734000
As	3.550500	8.284500	5.917500
B	4.734000	9.468000	4.734000
As	5.917500	10.651500	5.917500
B	2.367000	4.734000	7.101000
As	3.550500	5.917500	8.284500
B	4.734000	7.101000	7.101000
As	5.917500	8.284500	8.284500
B	7.101000	9.468000	7.101000
As	8.284500	10.651500	8.284500
B	4.734000	4.734000	9.468000
As	5.917500	5.917500	10.651500
B	7.101000	7.101000	9.468000
As	8.284500	8.284500	10.651500
B	9.468000	9.468000	9.468000
As	10.651500	10.651500	10.651500
