54

In	0.000000	0.000000	0.000000
As	1.507000	1.507000	1.507000
In	3.014000	3.014000	0.000000
As	4.521000	4.521000	1.507000
In	6.028000	6.028000	0.000000
As	7.535000	7.535000	1.507000
In	3.014000	0.000000	3.014000
As	4.521000	1.507000	4.521000
In	6.028000	3.014000	3.014000
As	7.535000	4.521000	4.521000
In	9.042000	6.028000	3.014000
As	10.549000	7.535000	4.521000
In	6.028000	0.000000	6.028000
As	7.535000	1.507000	7.535000
In	9.042000	3.014000	6.028000
As	10.549000	4.521000	7.535000
In	12.056000	6.028000	6.028000
As	13.563000	7.535000	7.535000
In	0.000000	3.014000	3.014000
As	1.507000	4.521000	4.521000
In	3.014000	6.028000	3.014000
As	4.521000	7.535000	4.521000
In	6.028000	9.042000	3.014000
As	7.535000	10.549000	4.521000
In	3.014000	3.014000	6.028000
As	4.521000	4.521000	7.535000
In	6.028000	6.028000	6.028000
As	7.535000	7.535000	7.535000
In	9.042000	9.042000	6.028000
As	10.549000	10.549000	7.535000
In	6.028000	3.014000	9.042000
As	7.535000	4.521000	10.549000
In	9.042000	6.028000	9.042000
As	10.549000	7.535000	10.549000
In	12.056000	9.042000	9.042000
As	13.563000	10.549000	10.549000
In	0.000000	6.028000	6.028000
As	1.507000	7.535000	7.535000
In	3.014000	9.042000	6.028000
As	4.521000	10.549000	7.535000
In	6.028000	12.056000	6.028000
As	7.535000	13.563000	7.535000
In	3.014000	6.028000	9.042000
As	4.521000	7.535000	10.549000
In	6.028000	9.042000	9.042000
As	7.535000	10.549000	10.549000
In	9.042000	12.056000	9.042000
As	10.549000	13.563000	10.549000
In	6.028000	6.028000	12.056000
As	7.535000	7.535000	13.563000
In	9.042000	9.042000	12.056000
As	10.549000	10.549000	13.563000
In	12.056000	12.056000	12.056000
As	13.563000	13.563000	13.563000
