54

Ba	0.000000	0.000000	0.000000
O	1.448250	1.448250	1.448250
Ba	2.896500	2.896500	0.000000
O	4.344750	4.344750	1.448250
Ba	5.793000	5.793000	0.000000
O	7.241250	7.241250	1.448250
Ba	2.896500	0.000000	2.896500
O	4.344750	1.448250	4.344750
Ba	5.793000	2.896500	2.896500
O	7.241250	4.344750	4.344750
Ba	8.689500	5.793000	2.896500
O	10.137750	7.241250	4.344750
Ba	5.793000	0.000000	5.793000
O	7.241250	1.448250	7.241250
Ba	8.689500	2.896500	5.793000
O	10.137750	4.344750	7.241250
Ba	11.586000	5.793000	5.793000
O	13.034250	7.241250	7.241250
Ba	0.000000	2.896500	2.896500
O	1.448250	4.344750	4.344750
Ba	2.896500	5.793000	2.896500
O	4.344750	7.241250	4.344750
Ba	5.793000	8.689500	2.896500
O	7.241250	10.137750	4.344750
Ba	2.896500	2.896500	5.793000
O	4.344750	4.344750	7.241250
Ba	5.793000	5.793000	5.793000
O	7.241250	7.241250	7.241250
Ba	8.689500	8.689500	5.793000
O	10.137750	10.137750	7.241250
Ba	5.793000	2.896500	8.689500
O	7.241250	4.344750	10.137750
Ba	8.689500	5.793000	8.689500
O	10.137750	7.241250	10.137750
Ba	11.586000	8.689500	8.689500
O	13.034250	10.137750	10.137750
Ba	0.000000	5.793000	5.793000
O	1.448250	7.241250	7.241250
Ba	2.896500	8.689500	5.793000
O	4.344750	10.137750	7.241250
Ba	5.793000	11.586000	5.793000
O	7.241250	13.034250	7.241250
Ba	2.896500	5.793000	8.689500
O	4.344750	7.241250	10.137750
Ba	5.793000	8.689500	8.689500
O	7.241250	10.137750	10.137750
Ba	8.689500	11.586000	8.689500
O	10.137750	13.034250	10.137750
Ba	5.793000	5.793000	11.586000
O	7.241250	7.241250	13.034250
Ba	8.689500	8.689500	11.586000
O	10.137750	10.137750	13.034250
Ba	11.586000	11.586000	11.586000
O	13.034250	13.034250	13.034250
