54

Ba	0.000000	0.000000	0.000000
Se	1.782000	1.782000	1.782000
Ba	3.564000	3.564000	0.000000
Se	5.346000	5.346000	1.782000
Ba	7.128000	7.128000	0.000000
Se	8.910000	8.910000	1.782000
Ba	3.564000	0.000000	3.564000
Se	5.346000	1.782000	5.346000
Ba	7.128000	3.564000	3.564000
Se	8.910000	5.346000	5.346000
Ba	10.692000	7.128000	3.564000
Se	12.474000	8.910000	5.346000
Ba	7.128000	0.000000	7.128000
Se	8.910000	1.782000	8.910000
Ba	10.692000	3.564000	7.128000
Se	12.474000	5.346000	8.910000
Ba	14.256000	7.128000	7.128000
Se	16.038000	8.910000	8.910000
Ba	0.000000	3.564000	3.564000
Se	1.782000	5.346000	5.346000
Ba	3.564000	7.128000	3.564000
Se	5.346000	8.910000	5.346000
Ba	7.128000	10.692000	3.564000
Se	8.910000	12.474000	5.346000
Ba	3.564000	3.564000	7.128000
Se	5.346000	5.346000	8.910000
Ba	7.128000	7.128000	7.128000
Se	8.910000	8.910000	8.910000
Ba	10.692000	10.692000	7.128000
Se	12.474000	12.474000	8.910000
Ba	7.128000	3.564000	10.692000
Se	8.910000	5.346000	12.474000
Ba	10.692000	7.128000	10.692000
Se	12.474000	8.910000	12.474000
Ba	14.256000	10.692000	10.692000
Se	16.038000	12.474000	12.474000
Ba	0.000000	7.128000	7.128000
Se	1.782000	8.910000	8.910000
Ba	3.564000	10.692000	7.128000
Se	5.346000	12.474000	8.910000
Ba	7.128000	14.256000	7.128000
Se	8.910000	16.038000	8.910000
Ba	3.564000	7.128000	10.692000
Se	5.346000	8.910000	12.474000
Ba	7.128000	10.692000	10.692000
Se	8.910000	12.474000	12.474000
Ba	10.692000	14.256000	10.692000
Se	12.474000	16.038000	12.474000
Ba	7.128000	7.128000	14.256000
Se	8.910000	8.910000	16.038000
Ba	10.692000	10.692000	14.256000
Se	12.474000	12.474000	16.038000
Ba	14.256000	14.256000	14.256000
Se	16.038000	16.038000	16.038000
