54

Be	0.000000	0.000000	0.000000
S	1.199500	1.199500	1.199500
Be	2.399000	2.399000	0.000000
S	3.598500	3.598500	1.199500
Be	4.798000	4.798000	0.000000
S	5.997500	5.997500	1.199500
Be	2.399000	0.000000	2.399000
S	3.598500	1.199500	3.598500
Be	4.798000	2.399000	2.399000
S	5.997500	3.598500	3.598500
Be	7.197000	4.798000	2.399000
S	8.396500	5.997500	3.598500
Be	4.798000	0.000000	4.798000
S	5.997500	1.199500	5.997500
Be	7.197000	2.399000	4.798000
S	8.396500	3.598500	5.997500
Be	9.596000	4.798000	4.798000
S	10.795500	5.997500	5.997500
Be	0.000000	2.399000	2.399000
S	1.199500	3.598500	3.598500
Be	2.399000	4.798000	2.399000
S	3.598500	5.997500	3.598500
Be	4.798000	7.197000	2.399000
S	5.997500	8.396500	3.598500
Be	2.399000	2.399000	4.798000
S	3.598500	3.598500	5.997500
Be	4.798000	4.798000	4.798000
S	5.997500	5.997500	5.997500
Be	7.197000	7.197000	4.798000
S	8.396500	8.396500	5.997500
Be	4.798000	2.399000	7.197000
S	5.997500	3.598500	8.396500
Be	7.197000	4.798000	7.197000
S	8.396500	5.997500	8.396500
Be	9.596000	7.197000	7.197000
S	10.795500	8.396500	8.396500
Be	0.000000	4.798000	4.798000
S	1.199500	5.997500	5.997500
Be	2.399000	7.197000	4.798000
S	3.598500	8.396500	5.997500
Be	4.798000	9.596000	4.798000
S	5.997500	10.795500	5.997500
Be	2.399000	4.798000	7.197000
S	3.598500	5.997500	8.396500
Be	4.798000	7.197000	7.197000
S	5.997500	8.396500	8.396500
Be	7.197000	9.596000	7.197000
S	8.396500	10.795500	8.396500
Be	4.798000	4.798000	9.596000
S	5.997500	5.997500	10.795500
Be	7.197000	7.197000	9.596000
S	8.396500	8.396500	10.795500
Be	9.596000	9.596000	9.596000
S	10.795500	10.795500	10.795500
