54

Be	0.000000	0.000000	0.000000
Te	1.389500	1.389500	1.389500
Be	2.779000	2.779000	0.000000
Te	4.168500	4.168500	1.389500
Be	5.558000	5.558000	0.000000
Te	6.947500	6.947500	1.389500
Be	2.779000	0.000000	2.779000
Te	4.168500	1.389500	4.168500
Be	5.558000	2.779000	2.779000
Te	6.947500	4.168500	4.168500
Be	8.337000	5.558000	2.779000
Te	9.726500	6.947500	4.168500
Be	5.558000	0.000000	5.558000
Te	6.947500	1.389500	6.947500
Be	8.337000	2.779000	5.558000
Te	9.726500	4.168500	6.947500
Be	11.116000	5.558000	5.558000
Te	12.505500	6.947500	6.947500
Be	0.000000	2.779000	2.779000
Te	1.389500	4.168500	4.168500
Be	2.779000	5.558000	2.779000
Te	4.168500	6.947500	4.168500
Be	5.558000	8.337000	2.779000
Te	6.947500	9.726500	4.168500
Be	2.779000	2.779000	5.558000
Te	4.168500	4.168500	6.947500
Be	5.558000	5.558000	5.558000
Te	6.947500	6.947500	6.947500
Be	8.337000	8.337000	5.558000
Te	9.726500	9.726500	6.947500
Be	5.558000	2.779000	8.337000
Te	6.947500	4.168500	9.726500
Be	8.337000	5.558000	8.337000
Te	9.726500	6.947500	9.726500
Be	11.116000	8.337000	8.337000
Te	12.505500	9.726500	9.726500
Be	0.000000	5.558000	5.558000
Te	1.389500	6.947500	6.947500
Be	2.779000	8.337000	5.558000
Te	4.168500	9.726500	6.947500
Be	5.558000	11.116000	5.558000
Te	6.947500	12.505500	6.947500
Be	2.779000	5.558000	8.337000
Te	4.168500	6.947500	9.726500
Be	5.558000	8.337000	8.337000
Te	6.947500	9.726500	9.726500
Be	8.337000	11.116000	8.337000
Te	9.726500	12.505500	9.726500
Be	5.558000	5.558000	11.116000
Te	6.947500	6.947500	12.505500
Be	8.337000	8.337000	11.116000
Te	9.726500	9.726500	12.505500
Be	11.116000	11.116000	11.116000
Te	12.505500	12.505500	12.505500
