54

Cs	0.000000	0.000000	0.000000
Br	1.957250	1.957250	1.957250
Cs	3.914500	3.914500	0.000000
Br	5.871750	5.871750	1.957250
Cs	7.829000	7.829000	0.000000
Br	9.786250	9.786250	1.957250
Cs	3.914500	0.000000	3.914500
Br	5.871750	1.957250	5.871750
Cs	7.829000	3.914500	3.914500
Br	9.786250	5.871750	5.871750
Cs	11.743500	7.829000	3.914500
Br	13.700750	9.786250	5.871750
Cs	7.829000	0.000000	7.829000
Br	9.786250	1.957250	9.786250
Cs	11.743500	3.914500	7.829000
Br	13.700750	5.871750	9.786250
Cs	15.658000	7.829000	7.829000
Br	17.615250	9.786250	9.786250
Cs	0.000000	3.914500	3.914500
Br	1.957250	5.871750	5.871750
Cs	3.914500	7.829000	3.914500
Br	5.871750	9.786250	5.871750
Cs	7.829000	11.743500	3.914500
Br	9.786250	13.700750	5.871750
Cs	3.914500	3.914500	7.829000
Br	5.871750	5.871750	9.786250
Cs	7.829000	7.829000	7.829000
Br	9.786250	9.786250	9.786250
Cs	11.743500	11.743500	7.829000
Br	13.700750	13.700750	9.786250
Cs	7.829000	3.914500	11.743500
Br	9.786250	5.871750	13.700750
Cs	11.743500	7.829000	11.743500
Br	13.700750	9.786250	13.700750
Cs	15.658000	11.743500	11.743500
Br	17.615250	13.700750	13.700750
Cs	0.000000	7.829000	7.829000
Br	1.957250	9.786250	9.786250
Cs	3.914500	11.743500	7.829000
Br	5.871750	13.700750	9.786250
Cs	7.829000	15.658000	7.829000
Br	9.786250	17.615250	9.786250
Cs	3.914500	7.829000	11.743500
Br	5.871750	9.786250	13.700750
Cs	7.829000	11.743500	11.743500
Br	9.786250	13.700750	13.700750
Cs	11.743500	15.658000	11.743500
Br	13.700750	17.615250	13.700750
Cs	7.829000	7.829000	15.658000
Br	9.786250	9.786250	17.615250
Cs	11.743500	11.743500	15.658000
Br	13.700750	13.700750	17.615250
Cs	15.658000	15.658000	15.658000
Br	17.615250	17.615250	17.615250
