54

Li	0.000000	0.000000	0.000000
Br	1.422000	1.422000	1.422000
Li	2.844000	2.844000	0.000000
Br	4.266000	4.266000	1.422000
Li	5.688000	5.688000	0.000000
Br	7.110000	7.110000	1.422000
Li	2.844000	0.000000	2.844000
Br	4.266000	1.422000	4.266000
Li	5.688000	2.844000	2.844000
Br	7.110000	4.266000	4.266000
Li	8.532000	5.688000	2.844000
Br	9.954000	7.110000	4.266000
Li	5.688000	0.000000	5.688000
Br	7.110000	1.422000	7.110000
Li	8.532000	2.844000	5.688000
Br	9.954000	4.266000	7.110000
Li	11.376000	5.688000	5.688000
Br	12.798000	7.110000	7.110000
Li	0.000000	2.844000	2.844000
Br	1.422000	4.266000	4.266000
Li	2.844000	5.688000	2.844000
Br	4.266000	7.110000	4.266000
Li	5.688000	8.532000	2.844000
Br	7.110000	9.954000	4.266000
Li	2.844000	2.844000	5.688000
Br	4.266000	4.266000	7.110000
Li	5.688000	5.688000	5.688000
Br	7.110000	7.110000	7.110000
Li	8.532000	8.532000	5.688000
Br	9.954000	9.954000	7.110000
Li	5.688000	2.844000	8.532000
Br	7.110000	4.266000	9.954000
Li	8.532000	5.688000	8.532000
Br	9.954000	7.110000	9.954000
Li	11.376000	8.532000	8.532000
Br	12.798000	9.954000	9.954000
Li	0.000000	5.688000	5.688000
Br	1.422000	7.110000	7.110000
Li	2.844000	8.532000	5.688000
Br	4.266000	9.954000	7.110000
Li	5.688000	11.376000	5.688000
Br	7.110000	12.798000	7.110000
Li	2.844000	5.688000	8.532000
Br	4.266000	7.110000	9.954000
Li	5.688000	8.532000	8.532000
Br	7.110000	9.954000	9.954000
Li	8.532000	11.376000	8.532000
Br	9.954000	12.798000	9.954000
Li	5.688000	5.688000	11.376000
Br	7.110000	7.110000	12.798000
Li	8.532000	8.532000	11.376000
Br	9.954000	9.954000	12.798000
Li	11.376000	11.376000	11.376000
Br	12.798000	12.798000	12.798000
