54

Rb	0.000000	0.000000	0.000000
Br	1.862750	1.862750	1.862750
Rb	3.725500	3.725500	0.000000
Br	5.588250	5.588250	1.862750
Rb	7.451000	7.451000	0.000000
Br	9.313750	9.313750	1.862750
Rb	3.725500	0.000000	3.725500
Br	5.588250	1.862750	5.588250
Rb	7.451000	3.725500	3.725500
Br	9.313750	5.588250	5.588250
Rb	11.176500	7.451000	3.725500
Br	13.039250	9.313750	5.588250
Rb	7.451000	0.000000	7.451000
Br	9.313750	1.862750	9.313750
Rb	11.176500	3.725500	7.451000
Br	13.039250	5.588250	9.313750
Rb	14.902000	7.451000	7.451000
Br	16.764750	9.313750	9.313750
Rb	0.000000	3.725500	3.725500
Br	1.862750	5.588250	5.588250
Rb	3.725500	7.451000	3.725500
Br	5.588250	9.313750	5.588250
Rb	7.451000	11.176500	3.725500
Br	9.313750	13.039250	5.588250
Rb	3.725500	3.725500	7.451000
Br	5.588250	5.588250	9.313750
Rb	7.451000	7.451000	7.451000
Br	9.313750	9.313750	9.313750
Rb	11.176500	11.176500	7.451000
Br	13.039250	13.039250	9.313750
Rb	7.451000	3.725500	11.176500
Br	9.313750	5.588250	13.039250
Rb	11.176500	7.451000	11.176500
Br	13.039250	9.313750	13.039250
Rb	14.902000	11.176500	11.176500
Br	16.764750	13.039250	13.039250
Rb	0.000000	7.451000	7.451000
Br	1.862750	9.313750	9.313750
Rb	3.725500	11.176500	7.451000
Br	5.588250	13.039250	9.313750
Rb	7.451000	14.902000	7.451000
Br	9.313750	16.764750	9.313750
Rb	3.725500	7.451000	11.176500
Br	5.588250	9.313750	13.039250
Rb	7.451000	11.176500	11.176500
Br	9.313750	13.039250	13.039250
Rb	11.176500	14.902000	11.176500
Br	13.039250	16.764750	13.039250
Rb	7.451000	7.451000	14.902000
Br	9.313750	9.313750	16.764750
Rb	11.176500	11.176500	14.902000
Br	13.039250	13.039250	16.764750
Rb	14.902000	14.902000	14.902000
Br	16.764750	16.764750	16.764750
