54

Ca	0.000000	0.000000	0.000000
O	1.280250	1.280250	1.280250
Ca	2.560500	2.560500	0.000000
O	3.840750	3.840750	1.280250
Ca	5.121000	5.121000	0.000000
O	6.401250	6.401250	1.280250
Ca	2.560500	0.000000	2.560500
O	3.840750	1.280250	3.840750
Ca	5.121000	2.560500	2.560500
O	6.401250	3.840750	3.840750
Ca	7.681500	5.121000	2.560500
O	8.961750	6.401250	3.840750
Ca	5.121000	0.000000	5.121000
O	6.401250	1.280250	6.401250
Ca	7.681500	2.560500	5.121000
O	8.961750	3.840750	6.401250
Ca	10.242000	5.121000	5.121000
O	11.522250	6.401250	6.401250
Ca	0.000000	2.560500	2.560500
O	1.280250	3.840750	3.840750
Ca	2.560500	5.121000	2.560500
O	3.840750	6.401250	3.840750
Ca	5.121000	7.681500	2.560500
O	6.401250	8.961750	3.840750
Ca	2.560500	2.560500	5.121000
O	3.840750	3.840750	6.401250
Ca	5.121000	5.121000	5.121000
O	6.401250	6.401250	6.401250
Ca	7.681500	7.681500	5.121000
O	8.961750	8.961750	6.401250
Ca	5.121000	2.560500	7.681500
O	6.401250	3.840750	8.961750
Ca	7.681500	5.121000	7.681500
O	8.961750	6.401250	8.961750
Ca	10.242000	7.681500	7.681500
O	11.522250	8.961750	8.961750
Ca	0.000000	5.121000	5.121000
O	1.280250	6.401250	6.401250
Ca	2.560500	7.681500	5.121000
O	3.840750	8.961750	6.401250
Ca	5.121000	10.242000	5.121000
O	6.401250	11.522250	6.401250
Ca	2.560500	5.121000	7.681500
O	3.840750	6.401250	8.961750
Ca	5.121000	7.681500	7.681500
O	6.401250	8.961750	8.961750
Ca	7.681500	10.242000	7.681500
O	8.961750	11.522250	8.961750
Ca	5.121000	5.121000	10.242000
O	6.401250	6.401250	11.522250
Ca	7.681500	7.681500	10.242000
O	8.961750	8.961750	11.522250
Ca	10.242000	10.242000	10.242000
O	11.522250	11.522250	11.522250
