54

Cd	0.000000	0.000000	0.000000
Se	1.503250	1.503250	1.503250
Cd	3.006500	3.006500	0.000000
Se	4.509750	4.509750	1.503250
Cd	6.013000	6.013000	0.000000
Se	7.516250	7.516250	1.503250
Cd	3.006500	0.000000	3.006500
Se	4.509750	1.503250	4.509750
Cd	6.013000	3.006500	3.006500
Se	7.516250	4.509750	4.509750
Cd	9.019500	6.013000	3.006500
Se	10.522750	7.516250	4.509750
Cd	6.013000	0.000000	6.013000
Se	7.516250	1.503250	7.516250
Cd	9.019500	3.006500	6.013000
Se	10.522750	4.509750	7.516250
Cd	12.026000	6.013000	6.013000
Se	13.529250	7.516250	7.516250
Cd	0.000000	3.006500	3.006500
Se	1.503250	4.509750	4.509750
Cd	3.006500	6.013000	3.006500
Se	4.509750	7.516250	4.509750
Cd	6.013000	9.019500	3.006500
Se	7.516250	10.522750	4.509750
Cd	3.006500	3.006500	6.013000
Se	4.509750	4.509750	7.516250
Cd	6.013000	6.013000	6.013000
Se	7.516250	7.516250	7.516250
Cd	9.019500	9.019500	6.013000
Se	10.522750	10.522750	7.516250
Cd	6.013000	3.006500	9.019500
Se	7.516250	4.509750	10.522750
Cd	9.019500	6.013000	9.019500
Se	10.522750	7.516250	10.522750
Cd	12.026000	9.019500	9.019500
Se	13.529250	10.522750	10.522750
Cd	0.000000	6.013000	6.013000
Se	1.503250	7.516250	7.516250
Cd	3.006500	9.019500	6.013000
Se	4.509750	10.522750	7.516250
Cd	6.013000	12.026000	6.013000
Se	7.516250	13.529250	7.516250
Cd	3.006500	6.013000	9.019500
Se	4.509750	7.516250	10.522750
Cd	6.013000	9.019500	9.019500
Se	7.516250	10.522750	10.522750
Cd	9.019500	12.026000	9.019500
Se	10.522750	13.529250	10.522750
Cd	6.013000	6.013000	12.026000
Se	7.516250	7.516250	13.529250
Cd	9.019500	9.019500	12.026000
Se	10.522750	10.522750	13.529250
Cd	12.026000	12.026000	12.026000
Se	13.529250	13.529250	13.529250
