54

Cu	0.000000	0.000000	0.000000
F	1.165750	1.165750	1.165750
Cu	2.331500	2.331500	0.000000
F	3.497250	3.497250	1.165750
Cu	4.663000	4.663000	0.000000
F	5.828750	5.828750	1.165750
Cu	2.331500	0.000000	2.331500
F	3.497250	1.165750	3.497250
Cu	4.663000	2.331500	2.331500
F	5.828750	3.497250	3.497250
Cu	6.994500	4.663000	2.331500
F	8.160250	5.828750	3.497250
Cu	4.663000	0.000000	4.663000
F	5.828750	1.165750	5.828750
Cu	6.994500	2.331500	4.663000
F	8.160250	3.497250	5.828750
Cu	9.326000	4.663000	4.663000
F	10.491750	5.828750	5.828750
Cu	0.000000	2.331500	2.331500
F	1.165750	3.497250	3.497250
Cu	2.331500	4.663000	2.331500
F	3.497250	5.828750	3.497250
Cu	4.663000	6.994500	2.331500
F	5.828750	8.160250	3.497250
Cu	2.331500	2.331500	4.663000
F	3.497250	3.497250	5.828750
Cu	4.663000	4.663000	4.663000
F	5.828750	5.828750	5.828750
Cu	6.994500	6.994500	4.663000
F	8.160250	8.160250	5.828750
Cu	4.663000	2.331500	6.994500
F	5.828750	3.497250	8.160250
Cu	6.994500	4.663000	6.994500
F	8.160250	5.828750	8.160250
Cu	9.326000	6.994500	6.994500
F	10.491750	8.160250	8.160250
Cu	0.000000	4.663000	4.663000
F	1.165750	5.828750	5.828750
Cu	2.331500	6.994500	4.663000
F	3.497250	8.160250	5.828750
Cu	4.663000	9.326000	4.663000
F	5.828750	10.491750	5.828750
Cu	2.331500	4.663000	6.994500
F	3.497250	5.828750	8.160250
Cu	4.663000	6.994500	6.994500
F	5.828750	8.160250	8.160250
Cu	6.994500	9.326000	6.994500
F	8.160250	10.491750	8.160250
Cu	4.663000	4.663000	9.326000
F	5.828750	5.828750	10.491750
Cu	6.994500	6.994500	9.326000
F	8.160250	8.160250	10.491750
Cu	9.326000	9.326000	9.326000
F	10.491750	10.491750	10.491750
