54

K	0.000000	0.000000	0.000000
F	1.424250	1.424250	1.424250
K	2.848500	2.848500	0.000000
F	4.272750	4.272750	1.424250
K	5.697000	5.697000	0.000000
F	7.121250	7.121250	1.424250
K	2.848500	0.000000	2.848500
F	4.272750	1.424250	4.272750
K	5.697000	2.848500	2.848500
F	7.121250	4.272750	4.272750
K	8.545500	5.697000	2.848500
F	9.969750	7.121250	4.272750
K	5.697000	0.000000	5.697000
F	7.121250	1.424250	7.121250
K	8.545500	2.848500	5.697000
F	9.969750	4.272750	7.121250
K	11.394000	5.697000	5.697000
F	12.818250	7.121250	7.121250
K	0.000000	2.848500	2.848500
F	1.424250	4.272750	4.272750
K	2.848500	5.697000	2.848500
F	4.272750	7.121250	4.272750
K	5.697000	8.545500	2.848500
F	7.121250	9.969750	4.272750
K	2.848500	2.848500	5.697000
F	4.272750	4.272750	7.121250
K	5.697000	5.697000	5.697000
F	7.121250	7.121250	7.121250
K	8.545500	8.545500	5.697000
F	9.969750	9.969750	7.121250
K	5.697000	2.848500	8.545500
F	7.121250	4.272750	9.969750
K	8.545500	5.697000	8.545500
F	9.969750	7.121250	9.969750
K	11.394000	8.545500	8.545500
F	12.818250	9.969750	9.969750
K	0.000000	5.697000	5.697000
F	1.424250	7.121250	7.121250
K	2.848500	8.545500	5.697000
F	4.272750	9.969750	7.121250
K	5.697000	11.394000	5.697000
F	7.121250	12.818250	7.121250
K	2.848500	5.697000	8.545500
F	4.272750	7.121250	9.969750
K	5.697000	8.545500	8.545500
F	7.121250	9.969750	9.969750
K	8.545500	11.394000	8.545500
F	9.969750	12.818250	9.969750
K	5.697000	5.697000	11.394000
F	7.121250	7.121250	12.818250
K	8.545500	8.545500	11.394000
F	9.969750	9.969750	12.818250
K	11.394000	11.394000	11.394000
F	12.818250	12.818250	12.818250
