54

Ga	0.000000	0.000000	0.000000
N	1.115000	1.115000	1.115000
Ga	2.230000	2.230000	0.000000
N	3.345000	3.345000	1.115000
Ga	4.460000	4.460000	0.000000
N	5.575000	5.575000	1.115000
Ga	2.230000	0.000000	2.230000
N	3.345000	1.115000	3.345000
Ga	4.460000	2.230000	2.230000
N	5.575000	3.345000	3.345000
Ga	6.690000	4.460000	2.230000
N	7.805000	5.575000	3.345000
Ga	4.460000	0.000000	4.460000
N	5.575000	1.115000	5.575000
Ga	6.690000	2.230000	4.460000
N	7.805000	3.345000	5.575000
Ga	8.920000	4.460000	4.460000
N	10.035000	5.575000	5.575000
Ga	0.000000	2.230000	2.230000
N	1.115000	3.345000	3.345000
Ga	2.230000	4.460000	2.230000
N	3.345000	5.575000	3.345000
Ga	4.460000	6.690000	2.230000
N	5.575000	7.805000	3.345000
Ga	2.230000	2.230000	4.460000
N	3.345000	3.345000	5.575000
Ga	4.460000	4.460000	4.460000
N	5.575000	5.575000	5.575000
Ga	6.690000	6.690000	4.460000
N	7.805000	7.805000	5.575000
Ga	4.460000	2.230000	6.690000
N	5.575000	3.345000	7.805000
Ga	6.690000	4.460000	6.690000
N	7.805000	5.575000	7.805000
Ga	8.920000	6.690000	6.690000
N	10.035000	7.805000	7.805000
Ga	0.000000	4.460000	4.460000
N	1.115000	5.575000	5.575000
Ga	2.230000	6.690000	4.460000
N	3.345000	7.805000	5.575000
Ga	4.460000	8.920000	4.460000
N	5.575000	10.035000	5.575000
Ga	2.230000	4.460000	6.690000
N	3.345000	5.575000	7.805000
Ga	4.460000	6.690000	6.690000
N	5.575000	7.805000	7.805000
Ga	6.690000	8.920000	6.690000
N	7.805000	10.035000	7.805000
Ga	4.460000	4.460000	8.920000
N	5.575000	5.575000	10.035000
Ga	6.690000	6.690000	8.920000
N	7.805000	7.805000	10.035000
Ga	8.920000	8.920000	8.920000
N	10.035000	10.035000	10.035000
