54

Ga	0.000000	0.000000	0.000000
Sb	1.513000	1.513000	1.513000
Ga	3.026000	3.026000	0.000000
Sb	4.539000	4.539000	1.513000
Ga	6.052000	6.052000	0.000000
Sb	7.565000	7.565000	1.513000
Ga	3.026000	0.000000	3.026000
Sb	4.539000	1.513000	4.539000
Ga	6.052000	3.026000	3.026000
Sb	7.565000	4.539000	4.539000
Ga	9.078000	6.052000	3.026000
Sb	10.591000	7.565000	4.539000
Ga	6.052000	0.000000	6.052000
Sb	7.565000	1.513000	7.565000
Ga	9.078000	3.026000	6.052000
Sb	10.591000	4.539000	7.565000
Ga	12.104000	6.052000	6.052000
Sb	13.617000	7.565000	7.565000
Ga	0.000000	3.026000	3.026000
Sb	1.513000	4.539000	4.539000
Ga	3.026000	6.052000	3.026000
Sb	4.539000	7.565000	4.539000
Ga	6.052000	9.078000	3.026000
Sb	7.565000	10.591000	4.539000
Ga	3.026000	3.026000	6.052000
Sb	4.539000	4.539000	7.565000
Ga	6.052000	6.052000	6.052000
Sb	7.565000	7.565000	7.565000
Ga	9.078000	9.078000	6.052000
Sb	10.591000	10.591000	7.565000
Ga	6.052000	3.026000	9.078000
Sb	7.565000	4.539000	10.591000
Ga	9.078000	6.052000	9.078000
Sb	10.591000	7.565000	10.591000
Ga	12.104000	9.078000	9.078000
Sb	13.617000	10.591000	10.591000
Ga	0.000000	6.052000	6.052000
Sb	1.513000	7.565000	7.565000
Ga	3.026000	9.078000	6.052000
Sb	4.539000	10.591000	7.565000
Ga	6.052000	12.104000	6.052000
Sb	7.565000	13.617000	7.565000
Ga	3.026000	6.052000	9.078000
Sb	4.539000	7.565000	10.591000
Ga	6.052000	9.078000	9.078000
Sb	7.565000	10.591000	10.591000
Ga	9.078000	12.104000	9.078000
Sb	10.591000	13.617000	10.591000
Ga	6.052000	6.052000	12.104000
Sb	7.565000	7.565000	13.617000
Ga	9.078000	9.078000	12.104000
Sb	10.591000	10.591000	13.617000
Ga	12.104000	12.104000	12.104000
Sb	13.617000	13.617000	13.617000
