54

Sn	0.000000	0.000000	0.000000
Ge	1.515000	1.515000	1.515000
Sn	3.030000	3.030000	0.000000
Ge	4.545000	4.545000	1.515000
Sn	6.060000	6.060000	0.000000
Ge	7.575000	7.575000	1.515000
Sn	3.030000	0.000000	3.030000
Ge	4.545000	1.515000	4.545000
Sn	6.060000	3.030000	3.030000
Ge	7.575000	4.545000	4.545000
Sn	9.090000	6.060000	3.030000
Ge	10.605000	7.575000	4.545000
Sn	6.060000	0.000000	6.060000
Ge	7.575000	1.515000	7.575000
Sn	9.090000	3.030000	6.060000
Ge	10.605000	4.545000	7.575000
Sn	12.120000	6.060000	6.060000
Ge	13.635000	7.575000	7.575000
Sn	0.000000	3.030000	3.030000
Ge	1.515000	4.545000	4.545000
Sn	3.030000	6.060000	3.030000
Ge	4.545000	7.575000	4.545000
Sn	6.060000	9.090000	3.030000
Ge	7.575000	10.605000	4.545000
Sn	3.030000	3.030000	6.060000
Ge	4.545000	4.545000	7.575000
Sn	6.060000	6.060000	6.060000
Ge	7.575000	7.575000	7.575000
Sn	9.090000	9.090000	6.060000
Ge	10.605000	10.605000	7.575000
Sn	6.060000	3.030000	9.090000
Ge	7.575000	4.545000	10.605000
Sn	9.090000	6.060000	9.090000
Ge	10.605000	7.575000	10.605000
Sn	12.120000	9.090000	9.090000
Ge	13.635000	10.605000	10.605000
Sn	0.000000	6.060000	6.060000
Ge	1.515000	7.575000	7.575000
Sn	3.030000	9.090000	6.060000
Ge	4.545000	10.605000	7.575000
Sn	6.060000	12.120000	6.060000
Ge	7.575000	13.635000	7.575000
Sn	3.030000	6.060000	9.090000
Ge	4.545000	7.575000	10.605000
Sn	6.060000	9.090000	9.090000
Ge	7.575000	10.605000	10.605000
Sn	9.090000	12.120000	9.090000
Ge	10.605000	13.635000	10.605000
Sn	6.060000	6.060000	12.120000
Ge	7.575000	7.575000	13.635000
Sn	9.090000	9.090000	12.120000
Ge	10.605000	10.605000	13.635000
Sn	12.120000	12.120000	12.120000
Ge	13.635000	13.635000	13.635000
