54

Na	0.000000	0.000000	0.000000
I	1.723000	1.723000	1.723000
Na	3.446000	3.446000	0.000000
I	5.169000	5.169000	1.723000
Na	6.892000	6.892000	0.000000
I	8.615000	8.615000	1.723000
Na	3.446000	0.000000	3.446000
I	5.169000	1.723000	5.169000
Na	6.892000	3.446000	3.446000
I	8.615000	5.169000	5.169000
Na	10.338000	6.892000	3.446000
I	12.061000	8.615000	5.169000
Na	6.892000	0.000000	6.892000
I	8.615000	1.723000	8.615000
Na	10.338000	3.446000	6.892000
I	12.061000	5.169000	8.615000
Na	13.784000	6.892000	6.892000
I	15.507000	8.615000	8.615000
Na	0.000000	3.446000	3.446000
I	1.723000	5.169000	5.169000
Na	3.446000	6.892000	3.446000
I	5.169000	8.615000	5.169000
Na	6.892000	10.338000	3.446000
I	8.615000	12.061000	5.169000
Na	3.446000	3.446000	6.892000
I	5.169000	5.169000	8.615000
Na	6.892000	6.892000	6.892000
I	8.615000	8.615000	8.615000
Na	10.338000	10.338000	6.892000
I	12.061000	12.061000	8.615000
Na	6.892000	3.446000	10.338000
I	8.615000	5.169000	12.061000
Na	10.338000	6.892000	10.338000
I	12.061000	8.615000	12.061000
Na	13.784000	10.338000	10.338000
I	15.507000	12.061000	12.061000
Na	0.000000	6.892000	6.892000
I	1.723000	8.615000	8.615000
Na	3.446000	10.338000	6.892000
I	5.169000	12.061000	8.615000
Na	6.892000	13.784000	6.892000
I	8.615000	15.507000	8.615000
Na	3.446000	6.892000	10.338000
I	5.169000	8.615000	12.061000
Na	6.892000	10.338000	10.338000
I	8.615000	12.061000	12.061000
Na	10.338000	13.784000	10.338000
I	12.061000	15.507000	12.061000
Na	6.892000	6.892000	13.784000
I	8.615000	8.615000	15.507000
Na	10.338000	10.338000	13.784000
I	12.061000	12.061000	15.507000
Na	13.784000	13.784000	13.784000
I	15.507000	15.507000	15.507000
