54

In	0.000000	0.000000	0.000000
N	1.235750	1.235750	1.235750
In	2.471500	2.471500	0.000000
N	3.707250	3.707250	1.235750
In	4.943000	4.943000	0.000000
N	6.178750	6.178750	1.235750
In	2.471500	0.000000	2.471500
N	3.707250	1.235750	3.707250
In	4.943000	2.471500	2.471500
N	6.178750	3.707250	3.707250
In	7.414500	4.943000	2.471500
N	8.650250	6.178750	3.707250
In	4.943000	0.000000	4.943000
N	6.178750	1.235750	6.178750
In	7.414500	2.471500	4.943000
N	8.650250	3.707250	6.178750
In	9.886000	4.943000	4.943000
N	11.121750	6.178750	6.178750
In	0.000000	2.471500	2.471500
N	1.235750	3.707250	3.707250
In	2.471500	4.943000	2.471500
N	3.707250	6.178750	3.707250
In	4.943000	7.414500	2.471500
N	6.178750	8.650250	3.707250
In	2.471500	2.471500	4.943000
N	3.707250	3.707250	6.178750
In	4.943000	4.943000	4.943000
N	6.178750	6.178750	6.178750
In	7.414500	7.414500	4.943000
N	8.650250	8.650250	6.178750
In	4.943000	2.471500	7.414500
N	6.178750	3.707250	8.650250
In	7.414500	4.943000	7.414500
N	8.650250	6.178750	8.650250
In	9.886000	7.414500	7.414500
N	11.121750	8.650250	8.650250
In	0.000000	4.943000	4.943000
N	1.235750	6.178750	6.178750
In	2.471500	7.414500	4.943000
N	3.707250	8.650250	6.178750
In	4.943000	9.886000	4.943000
N	6.178750	11.121750	6.178750
In	2.471500	4.943000	7.414500
N	3.707250	6.178750	8.650250
In	4.943000	7.414500	7.414500
N	6.178750	8.650250	8.650250
In	7.414500	9.886000	7.414500
N	8.650250	11.121750	8.650250
In	4.943000	4.943000	9.886000
N	6.178750	6.178750	11.121750
In	7.414500	7.414500	9.886000
N	8.650250	8.650250	11.121750
In	9.886000	9.886000	9.886000
N	11.121750	11.121750	11.121750
