54

Mg	0.000000	0.000000	0.000000
Se	1.469000	1.469000	1.469000
Mg	2.938000	2.938000	0.000000
Se	4.407000	4.407000	1.469000
Mg	5.876000	5.876000	0.000000
Se	7.345000	7.345000	1.469000
Mg	2.938000	0.000000	2.938000
Se	4.407000	1.469000	4.407000
Mg	5.876000	2.938000	2.938000
Se	7.345000	4.407000	4.407000
Mg	8.814000	5.876000	2.938000
Se	10.283000	7.345000	4.407000
Mg	5.876000	0.000000	5.876000
Se	7.345000	1.469000	7.345000
Mg	8.814000	2.938000	5.876000
Se	10.283000	4.407000	7.345000
Mg	11.752000	5.876000	5.876000
Se	13.221000	7.345000	7.345000
Mg	0.000000	2.938000	2.938000
Se	1.469000	4.407000	4.407000
Mg	2.938000	5.876000	2.938000
Se	4.407000	7.345000	4.407000
Mg	5.876000	8.814000	2.938000
Se	7.345000	10.283000	4.407000
Mg	2.938000	2.938000	5.876000
Se	4.407000	4.407000	7.345000
Mg	5.876000	5.876000	5.876000
Se	7.345000	7.345000	7.345000
Mg	8.814000	8.814000	5.876000
Se	10.283000	10.283000	7.345000
Mg	5.876000	2.938000	8.814000
Se	7.345000	4.407000	10.283000
Mg	8.814000	5.876000	8.814000
Se	10.283000	7.345000	10.283000
Mg	11.752000	8.814000	8.814000
Se	13.221000	10.283000	10.283000
Mg	0.000000	5.876000	5.876000
Se	1.469000	7.345000	7.345000
Mg	2.938000	8.814000	5.876000
Se	4.407000	10.283000	7.345000
Mg	5.876000	11.752000	5.876000
Se	7.345000	13.221000	7.345000
Mg	2.938000	5.876000	8.814000
Se	4.407000	7.345000	10.283000
Mg	5.876000	8.814000	8.814000
Se	7.345000	10.283000	10.283000
Mg	8.814000	11.752000	8.814000
Se	10.283000	13.221000	10.283000
Mg	5.876000	5.876000	11.752000
Se	7.345000	7.345000	13.221000
Mg	8.814000	8.814000	11.752000
Se	10.283000	10.283000	13.221000
Mg	11.752000	11.752000	11.752000
Se	13.221000	13.221000	13.221000
