54

Mg	0.000000	0.000000	0.000000
Te	1.593000	1.593000	1.593000
Mg	3.186000	3.186000	0.000000
Te	4.779000	4.779000	1.593000
Mg	6.372000	6.372000	0.000000
Te	7.965000	7.965000	1.593000
Mg	3.186000	0.000000	3.186000
Te	4.779000	1.593000	4.779000
Mg	6.372000	3.186000	3.186000
Te	7.965000	4.779000	4.779000
Mg	9.558000	6.372000	3.186000
Te	11.151000	7.965000	4.779000
Mg	6.372000	0.000000	6.372000
Te	7.965000	1.593000	7.965000
Mg	9.558000	3.186000	6.372000
Te	11.151000	4.779000	7.965000
Mg	12.744000	6.372000	6.372000
Te	14.337000	7.965000	7.965000
Mg	0.000000	3.186000	3.186000
Te	1.593000	4.779000	4.779000
Mg	3.186000	6.372000	3.186000
Te	4.779000	7.965000	4.779000
Mg	6.372000	9.558000	3.186000
Te	7.965000	11.151000	4.779000
Mg	3.186000	3.186000	6.372000
Te	4.779000	4.779000	7.965000
Mg	6.372000	6.372000	6.372000
Te	7.965000	7.965000	7.965000
Mg	9.558000	9.558000	6.372000
Te	11.151000	11.151000	7.965000
Mg	6.372000	3.186000	9.558000
Te	7.965000	4.779000	11.151000
Mg	9.558000	6.372000	9.558000
Te	11.151000	7.965000	11.151000
Mg	12.744000	9.558000	9.558000
Te	14.337000	11.151000	11.151000
Mg	0.000000	6.372000	6.372000
Te	1.593000	7.965000	7.965000
Mg	3.186000	9.558000	6.372000
Te	4.779000	11.151000	7.965000
Mg	6.372000	12.744000	6.372000
Te	7.965000	14.337000	7.965000
Mg	3.186000	6.372000	9.558000
Te	4.779000	7.965000	11.151000
Mg	6.372000	9.558000	9.558000
Te	7.965000	11.151000	11.151000
Mg	9.558000	12.744000	9.558000
Te	11.151000	14.337000	11.151000
Mg	6.372000	6.372000	12.744000
Te	7.965000	7.965000	14.337000
Mg	9.558000	9.558000	12.744000
Te	11.151000	11.151000	14.337000
Mg	12.744000	12.744000	12.744000
Te	14.337000	14.337000	14.337000
