54

Zn	0.000000	0.000000	0.000000
Se	1.393000	1.393000	1.393000
Zn	2.786000	2.786000	0.000000
Se	4.179000	4.179000	1.393000
Zn	5.572000	5.572000	0.000000
Se	6.965000	6.965000	1.393000
Zn	2.786000	0.000000	2.786000
Se	4.179000	1.393000	4.179000
Zn	5.572000	2.786000	2.786000
Se	6.965000	4.179000	4.179000
Zn	8.358000	5.572000	2.786000
Se	9.751000	6.965000	4.179000
Zn	5.572000	0.000000	5.572000
Se	6.965000	1.393000	6.965000
Zn	8.358000	2.786000	5.572000
Se	9.751000	4.179000	6.965000
Zn	11.144000	5.572000	5.572000
Se	12.537000	6.965000	6.965000
Zn	0.000000	2.786000	2.786000
Se	1.393000	4.179000	4.179000
Zn	2.786000	5.572000	2.786000
Se	4.179000	6.965000	4.179000
Zn	5.572000	8.358000	2.786000
Se	6.965000	9.751000	4.179000
Zn	2.786000	2.786000	5.572000
Se	4.179000	4.179000	6.965000
Zn	5.572000	5.572000	5.572000
Se	6.965000	6.965000	6.965000
Zn	8.358000	8.358000	5.572000
Se	9.751000	9.751000	6.965000
Zn	5.572000	2.786000	8.358000
Se	6.965000	4.179000	9.751000
Zn	8.358000	5.572000	8.358000
Se	9.751000	6.965000	9.751000
Zn	11.144000	8.358000	8.358000
Se	12.537000	9.751000	9.751000
Zn	0.000000	5.572000	5.572000
Se	1.393000	6.965000	6.965000
Zn	2.786000	8.358000	5.572000
Se	4.179000	9.751000	6.965000
Zn	5.572000	11.144000	5.572000
Se	6.965000	12.537000	6.965000
Zn	2.786000	5.572000	8.358000
Se	4.179000	6.965000	9.751000
Zn	5.572000	8.358000	8.358000
Se	6.965000	9.751000	9.751000
Zn	8.358000	11.144000	8.358000
Se	9.751000	12.537000	9.751000
Zn	5.572000	5.572000	11.144000
Se	6.965000	6.965000	12.537000
Zn	8.358000	8.358000	11.144000
Se	9.751000	9.751000	12.537000
Zn	11.144000	11.144000	11.144000
Se	12.537000	12.537000	12.537000
