54

Sn	0.000000	0.000000	0.000000
Sn	1.619000	1.619000	1.619000
Sn	3.238000	3.238000	0.000000
Sn	4.857000	4.857000	1.619000
Sn	6.476000	6.476000	0.000000
Sn	8.095000	8.095000	1.619000
Sn	3.238000	0.000000	3.238000
Sn	4.857000	1.619000	4.857000
Sn	6.476000	3.238000	3.238000
Sn	8.095000	4.857000	4.857000
Sn	9.714000	6.476000	3.238000
Sn	11.333000	8.095000	4.857000
Sn	6.476000	0.000000	6.476000
Sn	8.095000	1.619000	8.095000
Sn	9.714000	3.238000	6.476000
Sn	11.333000	4.857000	8.095000
Sn	12.952000	6.476000	6.476000
Sn	14.571000	8.095000	8.095000
Sn	0.000000	3.238000	3.238000
Sn	1.619000	4.857000	4.857000
Sn	3.238000	6.476000	3.238000
Sn	4.857000	8.095000	4.857000
Sn	6.476000	9.714000	3.238000
Sn	8.095000	11.333000	4.857000
Sn	3.238000	3.238000	6.476000
Sn	4.857000	4.857000	8.095000
Sn	6.476000	6.476000	6.476000
Sn	8.095000	8.095000	8.095000
Sn	9.714000	9.714000	6.476000
Sn	11.333000	11.333000	8.095000
Sn	6.476000	3.238000	9.714000
Sn	8.095000	4.857000	11.333000
Sn	9.714000	6.476000	9.714000
Sn	11.333000	8.095000	11.333000
Sn	12.952000	9.714000	9.714000
Sn	14.571000	11.333000	11.333000
Sn	0.000000	6.476000	6.476000
Sn	1.619000	8.095000	8.095000
Sn	3.238000	9.714000	6.476000
Sn	4.857000	11.333000	8.095000
Sn	6.476000	12.952000	6.476000
Sn	8.095000	14.571000	8.095000
Sn	3.238000	6.476000	9.714000
Sn	4.857000	8.095000	11.333000
Sn	6.476000	9.714000	9.714000
Sn	8.095000	11.333000	11.333000
Sn	9.714000	12.952000	9.714000
Sn	11.333000	14.571000	11.333000
Sn	6.476000	6.476000	12.952000
Sn	8.095000	8.095000	14.571000
Sn	9.714000	9.714000	12.952000
Sn	11.333000	11.333000	14.571000
Sn	12.952000	12.952000	12.952000
Sn	14.571000	14.571000	14.571000
