54

Ag	0.000000	0.000000	0.000000
Br	2.792500	2.792500	2.792500
Ag	2.792500	2.792500	0.000000
Br	5.585000	5.585000	2.792500
Ag	5.585000	5.585000	0.000000
Br	8.377500	8.377500	2.792500
Ag	2.792500	0.000000	2.792500
Br	5.585000	2.792500	5.585000
Ag	5.585000	2.792500	2.792500
Br	8.377500	5.585000	5.585000
Ag	8.377500	5.585000	2.792500
Br	11.170000	8.377500	5.585000
Ag	5.585000	0.000000	5.585000
Br	8.377500	2.792500	8.377500
Ag	8.377500	2.792500	5.585000
Br	11.170000	5.585000	8.377500
Ag	11.170000	5.585000	5.585000
Br	13.962500	8.377500	8.377500
Ag	0.000000	2.792500	2.792500
Br	2.792500	5.585000	5.585000
Ag	2.792500	5.585000	2.792500
Br	5.585000	8.377500	5.585000
Ag	5.585000	8.377500	2.792500
Br	8.377500	11.170000	5.585000
Ag	2.792500	2.792500	5.585000
Br	5.585000	5.585000	8.377500
Ag	5.585000	5.585000	5.585000
Br	8.377500	8.377500	8.377500
Ag	8.377500	8.377500	5.585000
Br	11.170000	11.170000	8.377500
Ag	5.585000	2.792500	8.377500
Br	8.377500	5.585000	11.170000
Ag	8.377500	5.585000	8.377500
Br	11.170000	8.377500	11.170000
Ag	11.170000	8.377500	8.377500
Br	13.962500	11.170000	11.170000
Ag	0.000000	5.585000	5.585000
Br	2.792500	8.377500	8.377500
Ag	2.792500	8.377500	5.585000
Br	5.585000	11.170000	8.377500
Ag	5.585000	11.170000	5.585000
Br	8.377500	13.962500	8.377500
Ag	2.792500	5.585000	8.377500
Br	5.585000	8.377500	11.170000
Ag	5.585000	8.377500	8.377500
Br	8.377500	11.170000	11.170000
Ag	8.377500	11.170000	8.377500
Br	11.170000	13.962500	11.170000
Ag	5.585000	5.585000	11.170000
Br	8.377500	8.377500	13.962500
Ag	8.377500	8.377500	11.170000
Br	11.170000	11.170000	13.962500
Ag	11.170000	11.170000	11.170000
Br	13.962500	13.962500	13.962500
