54

Ag	0.000000	0.000000	0.000000
F	2.395500	2.395500	2.395500
Ag	2.395500	2.395500	0.000000
F	4.791000	4.791000	2.395500
Ag	4.791000	4.791000	0.000000
F	7.186500	7.186500	2.395500
Ag	2.395500	0.000000	2.395500
F	4.791000	2.395500	4.791000
Ag	4.791000	2.395500	2.395500
F	7.186500	4.791000	4.791000
Ag	7.186500	4.791000	2.395500
F	9.582000	7.186500	4.791000
Ag	4.791000	0.000000	4.791000
F	7.186500	2.395500	7.186500
Ag	7.186500	2.395500	4.791000
F	9.582000	4.791000	7.186500
Ag	9.582000	4.791000	4.791000
F	11.977500	7.186500	7.186500
Ag	0.000000	2.395500	2.395500
F	2.395500	4.791000	4.791000
Ag	2.395500	4.791000	2.395500
F	4.791000	7.186500	4.791000
Ag	4.791000	7.186500	2.395500
F	7.186500	9.582000	4.791000
Ag	2.395500	2.395500	4.791000
F	4.791000	4.791000	7.186500
Ag	4.791000	4.791000	4.791000
F	7.186500	7.186500	7.186500
Ag	7.186500	7.186500	4.791000
F	9.582000	9.582000	7.186500
Ag	4.791000	2.395500	7.186500
F	7.186500	4.791000	9.582000
Ag	7.186500	4.791000	7.186500
F	9.582000	7.186500	9.582000
Ag	9.582000	7.186500	7.186500
F	11.977500	9.582000	9.582000
Ag	0.000000	4.791000	4.791000
F	2.395500	7.186500	7.186500
Ag	2.395500	7.186500	4.791000
F	4.791000	9.582000	7.186500
Ag	4.791000	9.582000	4.791000
F	7.186500	11.977500	7.186500
Ag	2.395500	4.791000	7.186500
F	4.791000	7.186500	9.582000
Ag	4.791000	7.186500	7.186500
F	7.186500	9.582000	9.582000
Ag	7.186500	9.582000	7.186500
F	9.582000	11.977500	9.582000
Ag	4.791000	4.791000	9.582000
F	7.186500	7.186500	11.977500
Ag	7.186500	7.186500	9.582000
F	9.582000	9.582000	11.977500
Ag	9.582000	9.582000	9.582000
F	11.977500	11.977500	11.977500
