54

Ag	0.000000	0.000000	0.000000
I	2.948500	2.948500	2.948500
Ag	2.948500	2.948500	0.000000
I	5.897000	5.897000	2.948500
Ag	5.897000	5.897000	0.000000
I	8.845500	8.845500	2.948500
Ag	2.948500	0.000000	2.948500
I	5.897000	2.948500	5.897000
Ag	5.897000	2.948500	2.948500
I	8.845500	5.897000	5.897000
Ag	8.845500	5.897000	2.948500
I	11.794000	8.845500	5.897000
Ag	5.897000	0.000000	5.897000
I	8.845500	2.948500	8.845500
Ag	8.845500	2.948500	5.897000
I	11.794000	5.897000	8.845500
Ag	11.794000	5.897000	5.897000
I	14.742500	8.845500	8.845500
Ag	0.000000	2.948500	2.948500
I	2.948500	5.897000	5.897000
Ag	2.948500	5.897000	2.948500
I	5.897000	8.845500	5.897000
Ag	5.897000	8.845500	2.948500
I	8.845500	11.794000	5.897000
Ag	2.948500	2.948500	5.897000
I	5.897000	5.897000	8.845500
Ag	5.897000	5.897000	5.897000
I	8.845500	8.845500	8.845500
Ag	8.845500	8.845500	5.897000
I	11.794000	11.794000	8.845500
Ag	5.897000	2.948500	8.845500
I	8.845500	5.897000	11.794000
Ag	8.845500	5.897000	8.845500
I	11.794000	8.845500	11.794000
Ag	11.794000	8.845500	8.845500
I	14.742500	11.794000	11.794000
Ag	0.000000	5.897000	5.897000
I	2.948500	8.845500	8.845500
Ag	2.948500	8.845500	5.897000
I	5.897000	11.794000	8.845500
Ag	5.897000	11.794000	5.897000
I	8.845500	14.742500	8.845500
Ag	2.948500	5.897000	8.845500
I	5.897000	8.845500	11.794000
Ag	5.897000	8.845500	8.845500
I	8.845500	11.794000	11.794000
Ag	8.845500	11.794000	8.845500
I	11.794000	14.742500	11.794000
Ag	5.897000	5.897000	11.794000
I	8.845500	8.845500	14.742500
Ag	8.845500	8.845500	11.794000
I	11.794000	11.794000	14.742500
Ag	11.794000	11.794000	11.794000
I	14.742500	14.742500	14.742500
