54

Al	0.000000	0.000000	0.000000
N	2.004500	2.004500	2.004500
Al	2.004500	2.004500	0.000000
N	4.009000	4.009000	2.004500
Al	4.009000	4.009000	0.000000
N	6.013500	6.013500	2.004500
Al	2.004500	0.000000	2.004500
N	4.009000	2.004500	4.009000
Al	4.009000	2.004500	2.004500
N	6.013500	4.009000	4.009000
Al	6.013500	4.009000	2.004500
N	8.018000	6.013500	4.009000
Al	4.009000	0.000000	4.009000
N	6.013500	2.004500	6.013500
Al	6.013500	2.004500	4.009000
N	8.018000	4.009000	6.013500
Al	8.018000	4.009000	4.009000
N	10.022500	6.013500	6.013500
Al	0.000000	2.004500	2.004500
N	2.004500	4.009000	4.009000
Al	2.004500	4.009000	2.004500
N	4.009000	6.013500	4.009000
Al	4.009000	6.013500	2.004500
N	6.013500	8.018000	4.009000
Al	2.004500	2.004500	4.009000
N	4.009000	4.009000	6.013500
Al	4.009000	4.009000	4.009000
N	6.013500	6.013500	6.013500
Al	6.013500	6.013500	4.009000
N	8.018000	8.018000	6.013500
Al	4.009000	2.004500	6.013500
N	6.013500	4.009000	8.018000
Al	6.013500	4.009000	6.013500
N	8.018000	6.013500	8.018000
Al	8.018000	6.013500	6.013500
N	10.022500	8.018000	8.018000
Al	0.000000	4.009000	4.009000
N	2.004500	6.013500	6.013500
Al	2.004500	6.013500	4.009000
N	4.009000	8.018000	6.013500
Al	4.009000	8.018000	4.009000
N	6.013500	10.022500	6.013500
Al	2.004500	4.009000	6.013500
N	4.009000	6.013500	8.018000
Al	4.009000	6.013500	6.013500
N	6.013500	8.018000	8.018000
Al	6.013500	8.018000	6.013500
N	8.018000	10.022500	8.018000
Al	4.009000	4.009000	8.018000
N	6.013500	6.013500	10.022500
Al	6.013500	6.013500	8.018000
N	8.018000	8.018000	10.022500
Al	8.018000	8.018000	8.018000
N	10.022500	10.022500	10.022500
