54

Al	0.000000	0.000000	0.000000
P	2.499000	2.499000	2.499000
Al	2.499000	2.499000	0.000000
P	4.998000	4.998000	2.499000
Al	4.998000	4.998000	0.000000
P	7.497000	7.497000	2.499000
Al	2.499000	0.000000	2.499000
P	4.998000	2.499000	4.998000
Al	4.998000	2.499000	2.499000
P	7.497000	4.998000	4.998000
Al	7.497000	4.998000	2.499000
P	9.996000	7.497000	4.998000
Al	4.998000	0.000000	4.998000
P	7.497000	2.499000	7.497000
Al	7.497000	2.499000	4.998000
P	9.996000	4.998000	7.497000
Al	9.996000	4.998000	4.998000
P	12.495000	7.497000	7.497000
Al	0.000000	2.499000	2.499000
P	2.499000	4.998000	4.998000
Al	2.499000	4.998000	2.499000
P	4.998000	7.497000	4.998000
Al	4.998000	7.497000	2.499000
P	7.497000	9.996000	4.998000
Al	2.499000	2.499000	4.998000
P	4.998000	4.998000	7.497000
Al	4.998000	4.998000	4.998000
P	7.497000	7.497000	7.497000
Al	7.497000	7.497000	4.998000
P	9.996000	9.996000	7.497000
Al	4.998000	2.499000	7.497000
P	7.497000	4.998000	9.996000
Al	7.497000	4.998000	7.497000
P	9.996000	7.497000	9.996000
Al	9.996000	7.497000	7.497000
P	12.495000	9.996000	9.996000
Al	0.000000	4.998000	4.998000
P	2.499000	7.497000	7.497000
Al	2.499000	7.497000	4.998000
P	4.998000	9.996000	7.497000
Al	4.998000	9.996000	4.998000
P	7.497000	12.495000	7.497000
Al	2.499000	4.998000	7.497000
P	4.998000	7.497000	9.996000
Al	4.998000	7.497000	7.497000
P	7.497000	9.996000	9.996000
Al	7.497000	9.996000	7.497000
P	9.996000	12.495000	9.996000
Al	4.998000	4.998000	9.996000
P	7.497000	7.497000	12.495000
Al	7.497000	7.497000	9.996000
P	9.996000	9.996000	12.495000
Al	9.996000	9.996000	9.996000
P	12.495000	12.495000	12.495000
