54

Al	0.000000	0.000000	0.000000
Sb	2.824000	2.824000	2.824000
Al	2.824000	2.824000	0.000000
Sb	5.648000	5.648000	2.824000
Al	5.648000	5.648000	0.000000
Sb	8.472000	8.472000	2.824000
Al	2.824000	0.000000	2.824000
Sb	5.648000	2.824000	5.648000
Al	5.648000	2.824000	2.824000
Sb	8.472000	5.648000	5.648000
Al	8.472000	5.648000	2.824000
Sb	11.296000	8.472000	5.648000
Al	5.648000	0.000000	5.648000
Sb	8.472000	2.824000	8.472000
Al	8.472000	2.824000	5.648000
Sb	11.296000	5.648000	8.472000
Al	11.296000	5.648000	5.648000
Sb	14.120000	8.472000	8.472000
Al	0.000000	2.824000	2.824000
Sb	2.824000	5.648000	5.648000
Al	2.824000	5.648000	2.824000
Sb	5.648000	8.472000	5.648000
Al	5.648000	8.472000	2.824000
Sb	8.472000	11.296000	5.648000
Al	2.824000	2.824000	5.648000
Sb	5.648000	5.648000	8.472000
Al	5.648000	5.648000	5.648000
Sb	8.472000	8.472000	8.472000
Al	8.472000	8.472000	5.648000
Sb	11.296000	11.296000	8.472000
Al	5.648000	2.824000	8.472000
Sb	8.472000	5.648000	11.296000
Al	8.472000	5.648000	8.472000
Sb	11.296000	8.472000	11.296000
Al	11.296000	8.472000	8.472000
Sb	14.120000	11.296000	11.296000
Al	0.000000	5.648000	5.648000
Sb	2.824000	8.472000	8.472000
Al	2.824000	8.472000	5.648000
Sb	5.648000	11.296000	8.472000
Al	5.648000	11.296000	5.648000
Sb	8.472000	14.120000	8.472000
Al	2.824000	5.648000	8.472000
Sb	5.648000	8.472000	11.296000
Al	5.648000	8.472000	8.472000
Sb	8.472000	11.296000	11.296000
Al	8.472000	11.296000	8.472000
Sb	11.296000	14.120000	11.296000
Al	5.648000	5.648000	11.296000
Sb	8.472000	8.472000	14.120000
Al	8.472000	8.472000	11.296000
Sb	11.296000	11.296000	14.120000
Al	11.296000	11.296000	11.296000
Sb	14.120000	14.120000	14.120000
