54

In	0.000000	0.000000	0.000000
As	2.798000	2.798000	2.798000
In	2.798000	2.798000	0.000000
As	5.596000	5.596000	2.798000
In	5.596000	5.596000	0.000000
As	8.394000	8.394000	2.798000
In	2.798000	0.000000	2.798000
As	5.596000	2.798000	5.596000
In	5.596000	2.798000	2.798000
As	8.394000	5.596000	5.596000
In	8.394000	5.596000	2.798000
As	11.192000	8.394000	5.596000
In	5.596000	0.000000	5.596000
As	8.394000	2.798000	8.394000
In	8.394000	2.798000	5.596000
As	11.192000	5.596000	8.394000
In	11.192000	5.596000	5.596000
As	13.990000	8.394000	8.394000
In	0.000000	2.798000	2.798000
As	2.798000	5.596000	5.596000
In	2.798000	5.596000	2.798000
As	5.596000	8.394000	5.596000
In	5.596000	8.394000	2.798000
As	8.394000	11.192000	5.596000
In	2.798000	2.798000	5.596000
As	5.596000	5.596000	8.394000
In	5.596000	5.596000	5.596000
As	8.394000	8.394000	8.394000
In	8.394000	8.394000	5.596000
As	11.192000	11.192000	8.394000
In	5.596000	2.798000	8.394000
As	8.394000	5.596000	11.192000
In	8.394000	5.596000	8.394000
As	11.192000	8.394000	11.192000
In	11.192000	8.394000	8.394000
As	13.990000	11.192000	11.192000
In	0.000000	5.596000	5.596000
As	2.798000	8.394000	8.394000
In	2.798000	8.394000	5.596000
As	5.596000	11.192000	8.394000
In	5.596000	11.192000	5.596000
As	8.394000	13.990000	8.394000
In	2.798000	5.596000	8.394000
As	5.596000	8.394000	11.192000
In	5.596000	8.394000	8.394000
As	8.394000	11.192000	11.192000
In	8.394000	11.192000	8.394000
As	11.192000	13.990000	11.192000
In	5.596000	5.596000	11.192000
As	8.394000	8.394000	13.990000
In	8.394000	8.394000	11.192000
As	11.192000	11.192000	13.990000
In	11.192000	11.192000	11.192000
As	13.990000	13.990000	13.990000
