54

Ba	0.000000	0.000000	0.000000
O	2.718000	2.718000	2.718000
Ba	2.718000	2.718000	0.000000
O	5.436000	5.436000	2.718000
Ba	5.436000	5.436000	0.000000
O	8.154000	8.154000	2.718000
Ba	2.718000	0.000000	2.718000
O	5.436000	2.718000	5.436000
Ba	5.436000	2.718000	2.718000
O	8.154000	5.436000	5.436000
Ba	8.154000	5.436000	2.718000
O	10.872000	8.154000	5.436000
Ba	5.436000	0.000000	5.436000
O	8.154000	2.718000	8.154000
Ba	8.154000	2.718000	5.436000
O	10.872000	5.436000	8.154000
Ba	10.872000	5.436000	5.436000
O	13.590000	8.154000	8.154000
Ba	0.000000	2.718000	2.718000
O	2.718000	5.436000	5.436000
Ba	2.718000	5.436000	2.718000
O	5.436000	8.154000	5.436000
Ba	5.436000	8.154000	2.718000
O	8.154000	10.872000	5.436000
Ba	2.718000	2.718000	5.436000
O	5.436000	5.436000	8.154000
Ba	5.436000	5.436000	5.436000
O	8.154000	8.154000	8.154000
Ba	8.154000	8.154000	5.436000
O	10.872000	10.872000	8.154000
Ba	5.436000	2.718000	8.154000
O	8.154000	5.436000	10.872000
Ba	8.154000	5.436000	8.154000
O	10.872000	8.154000	10.872000
Ba	10.872000	8.154000	8.154000
O	13.590000	10.872000	10.872000
Ba	0.000000	5.436000	5.436000
O	2.718000	8.154000	8.154000
Ba	2.718000	8.154000	5.436000
O	5.436000	10.872000	8.154000
Ba	5.436000	10.872000	5.436000
O	8.154000	13.590000	8.154000
Ba	2.718000	5.436000	8.154000
O	5.436000	8.154000	10.872000
Ba	5.436000	8.154000	8.154000
O	8.154000	10.872000	10.872000
Ba	8.154000	10.872000	8.154000
O	10.872000	13.590000	10.872000
Ba	5.436000	5.436000	10.872000
O	8.154000	8.154000	13.590000
Ba	8.154000	8.154000	10.872000
O	10.872000	10.872000	13.590000
Ba	10.872000	10.872000	10.872000
O	13.590000	13.590000	13.590000
