54

Ba	0.000000	0.000000	0.000000
Se	3.237500	3.237500	3.237500
Ba	3.237500	3.237500	0.000000
Se	6.475000	6.475000	3.237500
Ba	6.475000	6.475000	0.000000
Se	9.712500	9.712500	3.237500
Ba	3.237500	0.000000	3.237500
Se	6.475000	3.237500	6.475000
Ba	6.475000	3.237500	3.237500
Se	9.712500	6.475000	6.475000
Ba	9.712500	6.475000	3.237500
Se	12.950000	9.712500	6.475000
Ba	6.475000	0.000000	6.475000
Se	9.712500	3.237500	9.712500
Ba	9.712500	3.237500	6.475000
Se	12.950000	6.475000	9.712500
Ba	12.950000	6.475000	6.475000
Se	16.187500	9.712500	9.712500
Ba	0.000000	3.237500	3.237500
Se	3.237500	6.475000	6.475000
Ba	3.237500	6.475000	3.237500
Se	6.475000	9.712500	6.475000
Ba	6.475000	9.712500	3.237500
Se	9.712500	12.950000	6.475000
Ba	3.237500	3.237500	6.475000
Se	6.475000	6.475000	9.712500
Ba	6.475000	6.475000	6.475000
Se	9.712500	9.712500	9.712500
Ba	9.712500	9.712500	6.475000
Se	12.950000	12.950000	9.712500
Ba	6.475000	3.237500	9.712500
Se	9.712500	6.475000	12.950000
Ba	9.712500	6.475000	9.712500
Se	12.950000	9.712500	12.950000
Ba	12.950000	9.712500	9.712500
Se	16.187500	12.950000	12.950000
Ba	0.000000	6.475000	6.475000
Se	3.237500	9.712500	9.712500
Ba	3.237500	9.712500	6.475000
Se	6.475000	12.950000	9.712500
Ba	6.475000	12.950000	6.475000
Se	9.712500	16.187500	9.712500
Ba	3.237500	6.475000	9.712500
Se	6.475000	9.712500	12.950000
Ba	6.475000	9.712500	9.712500
Se	9.712500	12.950000	12.950000
Ba	9.712500	12.950000	9.712500
Se	12.950000	16.187500	12.950000
Ba	6.475000	6.475000	12.950000
Se	9.712500	9.712500	16.187500
Ba	9.712500	9.712500	12.950000
Se	12.950000	12.950000	16.187500
Ba	12.950000	12.950000	12.950000
Se	16.187500	16.187500	16.187500
