54

Ba	0.000000	0.000000	0.000000
Te	3.431000	3.431000	3.431000
Ba	3.431000	3.431000	0.000000
Te	6.862000	6.862000	3.431000
Ba	6.862000	6.862000	0.000000
Te	10.293000	10.293000	3.431000
Ba	3.431000	0.000000	3.431000
Te	6.862000	3.431000	6.862000
Ba	6.862000	3.431000	3.431000
Te	10.293000	6.862000	6.862000
Ba	10.293000	6.862000	3.431000
Te	13.724000	10.293000	6.862000
Ba	6.862000	0.000000	6.862000
Te	10.293000	3.431000	10.293000
Ba	10.293000	3.431000	6.862000
Te	13.724000	6.862000	10.293000
Ba	13.724000	6.862000	6.862000
Te	17.155000	10.293000	10.293000
Ba	0.000000	3.431000	3.431000
Te	3.431000	6.862000	6.862000
Ba	3.431000	6.862000	3.431000
Te	6.862000	10.293000	6.862000
Ba	6.862000	10.293000	3.431000
Te	10.293000	13.724000	6.862000
Ba	3.431000	3.431000	6.862000
Te	6.862000	6.862000	10.293000
Ba	6.862000	6.862000	6.862000
Te	10.293000	10.293000	10.293000
Ba	10.293000	10.293000	6.862000
Te	13.724000	13.724000	10.293000
Ba	6.862000	3.431000	10.293000
Te	10.293000	6.862000	13.724000
Ba	10.293000	6.862000	10.293000
Te	13.724000	10.293000	13.724000
Ba	13.724000	10.293000	10.293000
Te	17.155000	13.724000	13.724000
Ba	0.000000	6.862000	6.862000
Te	3.431000	10.293000	10.293000
Ba	3.431000	10.293000	6.862000
Te	6.862000	13.724000	10.293000
Ba	6.862000	13.724000	6.862000
Te	10.293000	17.155000	10.293000
Ba	3.431000	6.862000	10.293000
Te	6.862000	10.293000	13.724000
Ba	6.862000	10.293000	10.293000
Te	10.293000	13.724000	13.724000
Ba	10.293000	13.724000	10.293000
Te	13.724000	17.155000	13.724000
Ba	6.862000	6.862000	13.724000
Te	10.293000	10.293000	17.155000
Ba	10.293000	10.293000	13.724000
Te	13.724000	13.724000	17.155000
Ba	13.724000	13.724000	13.724000
Te	17.155000	17.155000	17.155000
