54

Be	0.000000	0.000000	0.000000
S	2.278500	2.278500	2.278500
Be	2.278500	2.278500	0.000000
S	4.557000	4.557000	2.278500
Be	4.557000	4.557000	0.000000
S	6.835500	6.835500	2.278500
Be	2.278500	0.000000	2.278500
S	4.557000	2.278500	4.557000
Be	4.557000	2.278500	2.278500
S	6.835500	4.557000	4.557000
Be	6.835500	4.557000	2.278500
S	9.114000	6.835500	4.557000
Be	4.557000	0.000000	4.557000
S	6.835500	2.278500	6.835500
Be	6.835500	2.278500	4.557000
S	9.114000	4.557000	6.835500
Be	9.114000	4.557000	4.557000
S	11.392500	6.835500	6.835500
Be	0.000000	2.278500	2.278500
S	2.278500	4.557000	4.557000
Be	2.278500	4.557000	2.278500
S	4.557000	6.835500	4.557000
Be	4.557000	6.835500	2.278500
S	6.835500	9.114000	4.557000
Be	2.278500	2.278500	4.557000
S	4.557000	4.557000	6.835500
Be	4.557000	4.557000	4.557000
S	6.835500	6.835500	6.835500
Be	6.835500	6.835500	4.557000
S	9.114000	9.114000	6.835500
Be	4.557000	2.278500	6.835500
S	6.835500	4.557000	9.114000
Be	6.835500	4.557000	6.835500
S	9.114000	6.835500	9.114000
Be	9.114000	6.835500	6.835500
S	11.392500	9.114000	9.114000
Be	0.000000	4.557000	4.557000
S	2.278500	6.835500	6.835500
Be	2.278500	6.835500	4.557000
S	4.557000	9.114000	6.835500
Be	4.557000	9.114000	4.557000
S	6.835500	11.392500	6.835500
Be	2.278500	4.557000	6.835500
S	4.557000	6.835500	9.114000
Be	4.557000	6.835500	6.835500
S	6.835500	9.114000	9.114000
Be	6.835500	9.114000	6.835500
S	9.114000	11.392500	9.114000
Be	4.557000	4.557000	9.114000
S	6.835500	6.835500	11.392500
Be	6.835500	6.835500	9.114000
S	9.114000	9.114000	11.392500
Be	9.114000	9.114000	9.114000
S	11.392500	11.392500	11.392500
