54

Be	0.000000	0.000000	0.000000
Te	2.633500	2.633500	2.633500
Be	2.633500	2.633500	0.000000
Te	5.267000	5.267000	2.633500
Be	5.267000	5.267000	0.000000
Te	7.900500	7.900500	2.633500
Be	2.633500	0.000000	2.633500
Te	5.267000	2.633500	5.267000
Be	5.267000	2.633500	2.633500
Te	7.900500	5.267000	5.267000
Be	7.900500	5.267000	2.633500
Te	10.534000	7.900500	5.267000
Be	5.267000	0.000000	5.267000
Te	7.900500	2.633500	7.900500
Be	7.900500	2.633500	5.267000
Te	10.534000	5.267000	7.900500
Be	10.534000	5.267000	5.267000
Te	13.167500	7.900500	7.900500
Be	0.000000	2.633500	2.633500
Te	2.633500	5.267000	5.267000
Be	2.633500	5.267000	2.633500
Te	5.267000	7.900500	5.267000
Be	5.267000	7.900500	2.633500
Te	7.900500	10.534000	5.267000
Be	2.633500	2.633500	5.267000
Te	5.267000	5.267000	7.900500
Be	5.267000	5.267000	5.267000
Te	7.900500	7.900500	7.900500
Be	7.900500	7.900500	5.267000
Te	10.534000	10.534000	7.900500
Be	5.267000	2.633500	7.900500
Te	7.900500	5.267000	10.534000
Be	7.900500	5.267000	7.900500
Te	10.534000	7.900500	10.534000
Be	10.534000	7.900500	7.900500
Te	13.167500	10.534000	10.534000
Be	0.000000	5.267000	5.267000
Te	2.633500	7.900500	7.900500
Be	2.633500	7.900500	5.267000
Te	5.267000	10.534000	7.900500
Be	5.267000	10.534000	5.267000
Te	7.900500	13.167500	7.900500
Be	2.633500	5.267000	7.900500
Te	5.267000	7.900500	10.534000
Be	5.267000	7.900500	7.900500
Te	7.900500	10.534000	10.534000
Be	7.900500	10.534000	7.900500
Te	10.534000	13.167500	10.534000
Be	5.267000	5.267000	10.534000
Te	7.900500	7.900500	13.167500
Be	7.900500	7.900500	10.534000
Te	10.534000	10.534000	13.167500
Be	10.534000	10.534000	10.534000
Te	13.167500	13.167500	13.167500
