54

B	0.000000	0.000000	0.000000
N	1.731000	1.731000	1.731000
B	1.731000	1.731000	0.000000
N	3.462000	3.462000	1.731000
B	3.462000	3.462000	0.000000
N	5.193000	5.193000	1.731000
B	1.731000	0.000000	1.731000
N	3.462000	1.731000	3.462000
B	3.462000	1.731000	1.731000
N	5.193000	3.462000	3.462000
B	5.193000	3.462000	1.731000
N	6.924000	5.193000	3.462000
B	3.462000	0.000000	3.462000
N	5.193000	1.731000	5.193000
B	5.193000	1.731000	3.462000
N	6.924000	3.462000	5.193000
B	6.924000	3.462000	3.462000
N	8.655000	5.193000	5.193000
B	0.000000	1.731000	1.731000
N	1.731000	3.462000	3.462000
B	1.731000	3.462000	1.731000
N	3.462000	5.193000	3.462000
B	3.462000	5.193000	1.731000
N	5.193000	6.924000	3.462000
B	1.731000	1.731000	3.462000
N	3.462000	3.462000	5.193000
B	3.462000	3.462000	3.462000
N	5.193000	5.193000	5.193000
B	5.193000	5.193000	3.462000
N	6.924000	6.924000	5.193000
B	3.462000	1.731000	5.193000
N	5.193000	3.462000	6.924000
B	5.193000	3.462000	5.193000
N	6.924000	5.193000	6.924000
B	6.924000	5.193000	5.193000
N	8.655000	6.924000	6.924000
B	0.000000	3.462000	3.462000
N	1.731000	5.193000	5.193000
B	1.731000	5.193000	3.462000
N	3.462000	6.924000	5.193000
B	3.462000	6.924000	3.462000
N	5.193000	8.655000	5.193000
B	1.731000	3.462000	5.193000
N	3.462000	5.193000	6.924000
B	3.462000	5.193000	5.193000
N	5.193000	6.924000	6.924000
B	5.193000	6.924000	5.193000
N	6.924000	8.655000	6.924000
B	3.462000	3.462000	6.924000
N	5.193000	5.193000	8.655000
B	5.193000	5.193000	6.924000
N	6.924000	6.924000	8.655000
B	6.924000	6.924000	6.924000
N	8.655000	8.655000	8.655000
