54

Cu	0.000000	0.000000	0.000000
Br	2.593000	2.593000	2.593000
Cu	2.593000	2.593000	0.000000
Br	5.186000	5.186000	2.593000
Cu	5.186000	5.186000	0.000000
Br	7.779000	7.779000	2.593000
Cu	2.593000	0.000000	2.593000
Br	5.186000	2.593000	5.186000
Cu	5.186000	2.593000	2.593000
Br	7.779000	5.186000	5.186000
Cu	7.779000	5.186000	2.593000
Br	10.372000	7.779000	5.186000
Cu	5.186000	0.000000	5.186000
Br	7.779000	2.593000	7.779000
Cu	7.779000	2.593000	5.186000
Br	10.372000	5.186000	7.779000
Cu	10.372000	5.186000	5.186000
Br	12.965000	7.779000	7.779000
Cu	0.000000	2.593000	2.593000
Br	2.593000	5.186000	5.186000
Cu	2.593000	5.186000	2.593000
Br	5.186000	7.779000	5.186000
Cu	5.186000	7.779000	2.593000
Br	7.779000	10.372000	5.186000
Cu	2.593000	2.593000	5.186000
Br	5.186000	5.186000	7.779000
Cu	5.186000	5.186000	5.186000
Br	7.779000	7.779000	7.779000
Cu	7.779000	7.779000	5.186000
Br	10.372000	10.372000	7.779000
Cu	5.186000	2.593000	7.779000
Br	7.779000	5.186000	10.372000
Cu	7.779000	5.186000	7.779000
Br	10.372000	7.779000	10.372000
Cu	10.372000	7.779000	7.779000
Br	12.965000	10.372000	10.372000
Cu	0.000000	5.186000	5.186000
Br	2.593000	7.779000	7.779000
Cu	2.593000	7.779000	5.186000
Br	5.186000	10.372000	7.779000
Cu	5.186000	10.372000	5.186000
Br	7.779000	12.965000	7.779000
Cu	2.593000	5.186000	7.779000
Br	5.186000	7.779000	10.372000
Cu	5.186000	7.779000	7.779000
Br	7.779000	10.372000	10.372000
Cu	7.779000	10.372000	7.779000
Br	10.372000	12.965000	10.372000
Cu	5.186000	5.186000	10.372000
Br	7.779000	7.779000	12.965000
Cu	7.779000	7.779000	10.372000
Br	10.372000	10.372000	12.965000
Cu	10.372000	10.372000	10.372000
Br	12.965000	12.965000	12.965000
