54

Li	0.000000	0.000000	0.000000
Br	2.655500	2.655500	2.655500
Li	2.655500	2.655500	0.000000
Br	5.311000	5.311000	2.655500
Li	5.311000	5.311000	0.000000
Br	7.966500	7.966500	2.655500
Li	2.655500	0.000000	2.655500
Br	5.311000	2.655500	5.311000
Li	5.311000	2.655500	2.655500
Br	7.966500	5.311000	5.311000
Li	7.966500	5.311000	2.655500
Br	10.622000	7.966500	5.311000
Li	5.311000	0.000000	5.311000
Br	7.966500	2.655500	7.966500
Li	7.966500	2.655500	5.311000
Br	10.622000	5.311000	7.966500
Li	10.622000	5.311000	5.311000
Br	13.277500	7.966500	7.966500
Li	0.000000	2.655500	2.655500
Br	2.655500	5.311000	5.311000
Li	2.655500	5.311000	2.655500
Br	5.311000	7.966500	5.311000
Li	5.311000	7.966500	2.655500
Br	7.966500	10.622000	5.311000
Li	2.655500	2.655500	5.311000
Br	5.311000	5.311000	7.966500
Li	5.311000	5.311000	5.311000
Br	7.966500	7.966500	7.966500
Li	7.966500	7.966500	5.311000
Br	10.622000	10.622000	7.966500
Li	5.311000	2.655500	7.966500
Br	7.966500	5.311000	10.622000
Li	7.966500	5.311000	7.966500
Br	10.622000	7.966500	10.622000
Li	10.622000	7.966500	7.966500
Br	13.277500	10.622000	10.622000
Li	0.000000	5.311000	5.311000
Br	2.655500	7.966500	7.966500
Li	2.655500	7.966500	5.311000
Br	5.311000	10.622000	7.966500
Li	5.311000	10.622000	5.311000
Br	7.966500	13.277500	7.966500
Li	2.655500	5.311000	7.966500
Br	5.311000	7.966500	10.622000
Li	5.311000	7.966500	7.966500
Br	7.966500	10.622000	10.622000
Li	7.966500	10.622000	7.966500
Br	10.622000	13.277500	10.622000
Li	5.311000	5.311000	10.622000
Br	7.966500	7.966500	13.277500
Li	7.966500	7.966500	10.622000
Br	10.622000	10.622000	13.277500
Li	10.622000	10.622000	10.622000
Br	13.277500	13.277500	13.277500
