54

Na	0.000000	0.000000	0.000000
Br	2.893000	2.893000	2.893000
Na	2.893000	2.893000	0.000000
Br	5.786000	5.786000	2.893000
Na	5.786000	5.786000	0.000000
Br	8.679000	8.679000	2.893000
Na	2.893000	0.000000	2.893000
Br	5.786000	2.893000	5.786000
Na	5.786000	2.893000	2.893000
Br	8.679000	5.786000	5.786000
Na	8.679000	5.786000	2.893000
Br	11.572000	8.679000	5.786000
Na	5.786000	0.000000	5.786000
Br	8.679000	2.893000	8.679000
Na	8.679000	2.893000	5.786000
Br	11.572000	5.786000	8.679000
Na	11.572000	5.786000	5.786000
Br	14.465000	8.679000	8.679000
Na	0.000000	2.893000	2.893000
Br	2.893000	5.786000	5.786000
Na	2.893000	5.786000	2.893000
Br	5.786000	8.679000	5.786000
Na	5.786000	8.679000	2.893000
Br	8.679000	11.572000	5.786000
Na	2.893000	2.893000	5.786000
Br	5.786000	5.786000	8.679000
Na	5.786000	5.786000	5.786000
Br	8.679000	8.679000	8.679000
Na	8.679000	8.679000	5.786000
Br	11.572000	11.572000	8.679000
Na	5.786000	2.893000	8.679000
Br	8.679000	5.786000	11.572000
Na	8.679000	5.786000	8.679000
Br	11.572000	8.679000	11.572000
Na	11.572000	8.679000	8.679000
Br	14.465000	11.572000	11.572000
Na	0.000000	5.786000	5.786000
Br	2.893000	8.679000	8.679000
Na	2.893000	8.679000	5.786000
Br	5.786000	11.572000	8.679000
Na	5.786000	11.572000	5.786000
Br	8.679000	14.465000	8.679000
Na	2.893000	5.786000	8.679000
Br	5.786000	8.679000	11.572000
Na	5.786000	8.679000	8.679000
Br	8.679000	11.572000	11.572000
Na	8.679000	11.572000	8.679000
Br	11.572000	14.465000	11.572000
Na	5.786000	5.786000	11.572000
Br	8.679000	8.679000	14.465000
Na	8.679000	8.679000	11.572000
Br	11.572000	11.572000	14.465000
Na	11.572000	11.572000	11.572000
Br	14.465000	14.465000	14.465000
