54

Ca	0.000000	0.000000	0.000000
S	2.782500	2.782500	2.782500
Ca	2.782500	2.782500	0.000000
S	5.565000	5.565000	2.782500
Ca	5.565000	5.565000	0.000000
S	8.347500	8.347500	2.782500
Ca	2.782500	0.000000	2.782500
S	5.565000	2.782500	5.565000
Ca	5.565000	2.782500	2.782500
S	8.347500	5.565000	5.565000
Ca	8.347500	5.565000	2.782500
S	11.130000	8.347500	5.565000
Ca	5.565000	0.000000	5.565000
S	8.347500	2.782500	8.347500
Ca	8.347500	2.782500	5.565000
S	11.130000	5.565000	8.347500
Ca	11.130000	5.565000	5.565000
S	13.912500	8.347500	8.347500
Ca	0.000000	2.782500	2.782500
S	2.782500	5.565000	5.565000
Ca	2.782500	5.565000	2.782500
S	5.565000	8.347500	5.565000
Ca	5.565000	8.347500	2.782500
S	8.347500	11.130000	5.565000
Ca	2.782500	2.782500	5.565000
S	5.565000	5.565000	8.347500
Ca	5.565000	5.565000	5.565000
S	8.347500	8.347500	8.347500
Ca	8.347500	8.347500	5.565000
S	11.130000	11.130000	8.347500
Ca	5.565000	2.782500	8.347500
S	8.347500	5.565000	11.130000
Ca	8.347500	5.565000	8.347500
S	11.130000	8.347500	11.130000
Ca	11.130000	8.347500	8.347500
S	13.912500	11.130000	11.130000
Ca	0.000000	5.565000	5.565000
S	2.782500	8.347500	8.347500
Ca	2.782500	8.347500	5.565000
S	5.565000	11.130000	8.347500
Ca	5.565000	11.130000	5.565000
S	8.347500	13.912500	8.347500
Ca	2.782500	5.565000	8.347500
S	5.565000	8.347500	11.130000
Ca	5.565000	8.347500	8.347500
S	8.347500	11.130000	11.130000
Ca	8.347500	11.130000	8.347500
S	11.130000	13.912500	11.130000
Ca	5.565000	5.565000	11.130000
S	8.347500	8.347500	13.912500
Ca	8.347500	8.347500	11.130000
S	11.130000	11.130000	13.912500
Ca	11.130000	11.130000	11.130000
S	13.912500	13.912500	13.912500
