54

Ca	0.000000	0.000000	0.000000
Se	2.896500	2.896500	2.896500
Ca	2.896500	2.896500	0.000000
Se	5.793000	5.793000	2.896500
Ca	5.793000	5.793000	0.000000
Se	8.689500	8.689500	2.896500
Ca	2.896500	0.000000	2.896500
Se	5.793000	2.896500	5.793000
Ca	5.793000	2.896500	2.896500
Se	8.689500	5.793000	5.793000
Ca	8.689500	5.793000	2.896500
Se	11.586000	8.689500	5.793000
Ca	5.793000	0.000000	5.793000
Se	8.689500	2.896500	8.689500
Ca	8.689500	2.896500	5.793000
Se	11.586000	5.793000	8.689500
Ca	11.586000	5.793000	5.793000
Se	14.482500	8.689500	8.689500
Ca	0.000000	2.896500	2.896500
Se	2.896500	5.793000	5.793000
Ca	2.896500	5.793000	2.896500
Se	5.793000	8.689500	5.793000
Ca	5.793000	8.689500	2.896500
Se	8.689500	11.586000	5.793000
Ca	2.896500	2.896500	5.793000
Se	5.793000	5.793000	8.689500
Ca	5.793000	5.793000	5.793000
Se	8.689500	8.689500	8.689500
Ca	8.689500	8.689500	5.793000
Se	11.586000	11.586000	8.689500
Ca	5.793000	2.896500	8.689500
Se	8.689500	5.793000	11.586000
Ca	8.689500	5.793000	8.689500
Se	11.586000	8.689500	11.586000
Ca	11.586000	8.689500	8.689500
Se	14.482500	11.586000	11.586000
Ca	0.000000	5.793000	5.793000
Se	2.896500	8.689500	8.689500
Ca	2.896500	8.689500	5.793000
Se	5.793000	11.586000	8.689500
Ca	5.793000	11.586000	5.793000
Se	8.689500	14.482500	8.689500
Ca	2.896500	5.793000	8.689500
Se	5.793000	8.689500	11.586000
Ca	5.793000	8.689500	8.689500
Se	8.689500	11.586000	11.586000
Ca	8.689500	11.586000	8.689500
Se	11.586000	14.482500	11.586000
Ca	5.793000	5.793000	11.586000
Se	8.689500	8.689500	14.482500
Ca	8.689500	8.689500	11.586000
Se	11.586000	11.586000	14.482500
Ca	11.586000	11.586000	11.586000
Se	14.482500	14.482500	14.482500
