54

Cd	0.000000	0.000000	0.000000
O	2.318000	2.318000	2.318000
Cd	2.318000	2.318000	0.000000
O	4.636000	4.636000	2.318000
Cd	4.636000	4.636000	0.000000
O	6.954000	6.954000	2.318000
Cd	2.318000	0.000000	2.318000
O	4.636000	2.318000	4.636000
Cd	4.636000	2.318000	2.318000
O	6.954000	4.636000	4.636000
Cd	6.954000	4.636000	2.318000
O	9.272000	6.954000	4.636000
Cd	4.636000	0.000000	4.636000
O	6.954000	2.318000	6.954000
Cd	6.954000	2.318000	4.636000
O	9.272000	4.636000	6.954000
Cd	9.272000	4.636000	4.636000
O	11.590000	6.954000	6.954000
Cd	0.000000	2.318000	2.318000
O	2.318000	4.636000	4.636000
Cd	2.318000	4.636000	2.318000
O	4.636000	6.954000	4.636000
Cd	4.636000	6.954000	2.318000
O	6.954000	9.272000	4.636000
Cd	2.318000	2.318000	4.636000
O	4.636000	4.636000	6.954000
Cd	4.636000	4.636000	4.636000
O	6.954000	6.954000	6.954000
Cd	6.954000	6.954000	4.636000
O	9.272000	9.272000	6.954000
Cd	4.636000	2.318000	6.954000
O	6.954000	4.636000	9.272000
Cd	6.954000	4.636000	6.954000
O	9.272000	6.954000	9.272000
Cd	9.272000	6.954000	6.954000
O	11.590000	9.272000	9.272000
Cd	0.000000	4.636000	4.636000
O	2.318000	6.954000	6.954000
Cd	2.318000	6.954000	4.636000
O	4.636000	9.272000	6.954000
Cd	4.636000	9.272000	4.636000
O	6.954000	11.590000	6.954000
Cd	2.318000	4.636000	6.954000
O	4.636000	6.954000	9.272000
Cd	4.636000	6.954000	6.954000
O	6.954000	9.272000	9.272000
Cd	6.954000	9.272000	6.954000
O	9.272000	11.590000	9.272000
Cd	4.636000	4.636000	9.272000
O	6.954000	6.954000	11.590000
Cd	6.954000	6.954000	9.272000
O	9.272000	9.272000	11.590000
Cd	9.272000	9.272000	9.272000
O	11.590000	11.590000	11.590000
