54

Cd	0.000000	0.000000	0.000000
Te	2.965500	2.965500	2.965500
Cd	2.965500	2.965500	0.000000
Te	5.931000	5.931000	2.965500
Cd	5.931000	5.931000	0.000000
Te	8.896500	8.896500	2.965500
Cd	2.965500	0.000000	2.965500
Te	5.931000	2.965500	5.931000
Cd	5.931000	2.965500	2.965500
Te	8.896500	5.931000	5.931000
Cd	8.896500	5.931000	2.965500
Te	11.862000	8.896500	5.931000
Cd	5.931000	0.000000	5.931000
Te	8.896500	2.965500	8.896500
Cd	8.896500	2.965500	5.931000
Te	11.862000	5.931000	8.896500
Cd	11.862000	5.931000	5.931000
Te	14.827500	8.896500	8.896500
Cd	0.000000	2.965500	2.965500
Te	2.965500	5.931000	5.931000
Cd	2.965500	5.931000	2.965500
Te	5.931000	8.896500	5.931000
Cd	5.931000	8.896500	2.965500
Te	8.896500	11.862000	5.931000
Cd	2.965500	2.965500	5.931000
Te	5.931000	5.931000	8.896500
Cd	5.931000	5.931000	5.931000
Te	8.896500	8.896500	8.896500
Cd	8.896500	8.896500	5.931000
Te	11.862000	11.862000	8.896500
Cd	5.931000	2.965500	8.896500
Te	8.896500	5.931000	11.862000
Cd	8.896500	5.931000	8.896500
Te	11.862000	8.896500	11.862000
Cd	11.862000	8.896500	8.896500
Te	14.827500	11.862000	11.862000
Cd	0.000000	5.931000	5.931000
Te	2.965500	8.896500	8.896500
Cd	2.965500	8.896500	5.931000
Te	5.931000	11.862000	8.896500
Cd	5.931000	11.862000	5.931000
Te	8.896500	14.827500	8.896500
Cd	2.965500	5.931000	8.896500
Te	5.931000	8.896500	11.862000
Cd	5.931000	8.896500	8.896500
Te	8.896500	11.862000	11.862000
Cd	8.896500	11.862000	8.896500
Te	11.862000	14.827500	11.862000
Cd	5.931000	5.931000	11.862000
Te	8.896500	8.896500	14.827500
Cd	8.896500	8.896500	11.862000
Te	11.862000	11.862000	14.827500
Cd	11.862000	11.862000	11.862000
Te	14.827500	14.827500	14.827500
