54

Cs	0.000000	0.000000	0.000000
Cl	3.365000	3.365000	3.365000
Cs	3.365000	3.365000	0.000000
Cl	6.730000	6.730000	3.365000
Cs	6.730000	6.730000	0.000000
Cl	10.095000	10.095000	3.365000
Cs	3.365000	0.000000	3.365000
Cl	6.730000	3.365000	6.730000
Cs	6.730000	3.365000	3.365000
Cl	10.095000	6.730000	6.730000
Cs	10.095000	6.730000	3.365000
Cl	13.460000	10.095000	6.730000
Cs	6.730000	0.000000	6.730000
Cl	10.095000	3.365000	10.095000
Cs	10.095000	3.365000	6.730000
Cl	13.460000	6.730000	10.095000
Cs	13.460000	6.730000	6.730000
Cl	16.825000	10.095000	10.095000
Cs	0.000000	3.365000	3.365000
Cl	3.365000	6.730000	6.730000
Cs	3.365000	6.730000	3.365000
Cl	6.730000	10.095000	6.730000
Cs	6.730000	10.095000	3.365000
Cl	10.095000	13.460000	6.730000
Cs	3.365000	3.365000	6.730000
Cl	6.730000	6.730000	10.095000
Cs	6.730000	6.730000	6.730000
Cl	10.095000	10.095000	10.095000
Cs	10.095000	10.095000	6.730000
Cl	13.460000	13.460000	10.095000
Cs	6.730000	3.365000	10.095000
Cl	10.095000	6.730000	13.460000
Cs	10.095000	6.730000	10.095000
Cl	13.460000	10.095000	13.460000
Cs	13.460000	10.095000	10.095000
Cl	16.825000	13.460000	13.460000
Cs	0.000000	6.730000	6.730000
Cl	3.365000	10.095000	10.095000
Cs	3.365000	10.095000	6.730000
Cl	6.730000	13.460000	10.095000
Cs	6.730000	13.460000	6.730000
Cl	10.095000	16.825000	10.095000
Cs	3.365000	6.730000	10.095000
Cl	6.730000	10.095000	13.460000
Cs	6.730000	10.095000	10.095000
Cl	10.095000	13.460000	13.460000
Cs	10.095000	13.460000	10.095000
Cl	13.460000	16.825000	13.460000
Cs	6.730000	6.730000	13.460000
Cl	10.095000	10.095000	16.825000
Cs	10.095000	10.095000	13.460000
Cl	13.460000	13.460000	16.825000
Cs	13.460000	13.460000	13.460000
Cl	16.825000	16.825000	16.825000
