54

Cu	0.000000	0.000000	0.000000
Cl	2.464500	2.464500	2.464500
Cu	2.464500	2.464500	0.000000
Cl	4.929000	4.929000	2.464500
Cu	4.929000	4.929000	0.000000
Cl	7.393500	7.393500	2.464500
Cu	2.464500	0.000000	2.464500
Cl	4.929000	2.464500	4.929000
Cu	4.929000	2.464500	2.464500
Cl	7.393500	4.929000	4.929000
Cu	7.393500	4.929000	2.464500
Cl	9.858000	7.393500	4.929000
Cu	4.929000	0.000000	4.929000
Cl	7.393500	2.464500	7.393500
Cu	7.393500	2.464500	4.929000
Cl	9.858000	4.929000	7.393500
Cu	9.858000	4.929000	4.929000
Cl	12.322500	7.393500	7.393500
Cu	0.000000	2.464500	2.464500
Cl	2.464500	4.929000	4.929000
Cu	2.464500	4.929000	2.464500
Cl	4.929000	7.393500	4.929000
Cu	4.929000	7.393500	2.464500
Cl	7.393500	9.858000	4.929000
Cu	2.464500	2.464500	4.929000
Cl	4.929000	4.929000	7.393500
Cu	4.929000	4.929000	4.929000
Cl	7.393500	7.393500	7.393500
Cu	7.393500	7.393500	4.929000
Cl	9.858000	9.858000	7.393500
Cu	4.929000	2.464500	7.393500
Cl	7.393500	4.929000	9.858000
Cu	7.393500	4.929000	7.393500
Cl	9.858000	7.393500	9.858000
Cu	9.858000	7.393500	7.393500
Cl	12.322500	9.858000	9.858000
Cu	0.000000	4.929000	4.929000
Cl	2.464500	7.393500	7.393500
Cu	2.464500	7.393500	4.929000
Cl	4.929000	9.858000	7.393500
Cu	4.929000	9.858000	4.929000
Cl	7.393500	12.322500	7.393500
Cu	2.464500	4.929000	7.393500
Cl	4.929000	7.393500	9.858000
Cu	4.929000	7.393500	7.393500
Cl	7.393500	9.858000	9.858000
Cu	7.393500	9.858000	7.393500
Cl	9.858000	12.322500	9.858000
Cu	4.929000	4.929000	9.858000
Cl	7.393500	7.393500	12.322500
Cu	7.393500	7.393500	9.858000
Cl	9.858000	9.858000	12.322500
Cu	9.858000	9.858000	9.858000
Cl	12.322500	12.322500	12.322500
