54

Li	0.000000	0.000000	0.000000
Cl	2.483000	2.483000	2.483000
Li	2.483000	2.483000	0.000000
Cl	4.966000	4.966000	2.483000
Li	4.966000	4.966000	0.000000
Cl	7.449000	7.449000	2.483000
Li	2.483000	0.000000	2.483000
Cl	4.966000	2.483000	4.966000
Li	4.966000	2.483000	2.483000
Cl	7.449000	4.966000	4.966000
Li	7.449000	4.966000	2.483000
Cl	9.932000	7.449000	4.966000
Li	4.966000	0.000000	4.966000
Cl	7.449000	2.483000	7.449000
Li	7.449000	2.483000	4.966000
Cl	9.932000	4.966000	7.449000
Li	9.932000	4.966000	4.966000
Cl	12.415000	7.449000	7.449000
Li	0.000000	2.483000	2.483000
Cl	2.483000	4.966000	4.966000
Li	2.483000	4.966000	2.483000
Cl	4.966000	7.449000	4.966000
Li	4.966000	7.449000	2.483000
Cl	7.449000	9.932000	4.966000
Li	2.483000	2.483000	4.966000
Cl	4.966000	4.966000	7.449000
Li	4.966000	4.966000	4.966000
Cl	7.449000	7.449000	7.449000
Li	7.449000	7.449000	4.966000
Cl	9.932000	9.932000	7.449000
Li	4.966000	2.483000	7.449000
Cl	7.449000	4.966000	9.932000
Li	7.449000	4.966000	7.449000
Cl	9.932000	7.449000	9.932000
Li	9.932000	7.449000	7.449000
Cl	12.415000	9.932000	9.932000
Li	0.000000	4.966000	4.966000
Cl	2.483000	7.449000	7.449000
Li	2.483000	7.449000	4.966000
Cl	4.966000	9.932000	7.449000
Li	4.966000	9.932000	4.966000
Cl	7.449000	12.415000	7.449000
Li	2.483000	4.966000	7.449000
Cl	4.966000	7.449000	9.932000
Li	4.966000	7.449000	7.449000
Cl	7.449000	9.932000	9.932000
Li	7.449000	9.932000	7.449000
Cl	9.932000	12.415000	9.932000
Li	4.966000	4.966000	9.932000
Cl	7.449000	7.449000	12.415000
Li	7.449000	7.449000	9.932000
Cl	9.932000	9.932000	12.415000
Li	9.932000	9.932000	9.932000
Cl	12.415000	12.415000	12.415000
