54

Sn	0.000000	0.000000	0.000000
C	2.355000	2.355000	2.355000
Sn	2.355000	2.355000	0.000000
C	4.710000	4.710000	2.355000
Sn	4.710000	4.710000	0.000000
C	7.065000	7.065000	2.355000
Sn	2.355000	0.000000	2.355000
C	4.710000	2.355000	4.710000
Sn	4.710000	2.355000	2.355000
C	7.065000	4.710000	4.710000
Sn	7.065000	4.710000	2.355000
C	9.420000	7.065000	4.710000
Sn	4.710000	0.000000	4.710000
C	7.065000	2.355000	7.065000
Sn	7.065000	2.355000	4.710000
C	9.420000	4.710000	7.065000
Sn	9.420000	4.710000	4.710000
C	11.775000	7.065000	7.065000
Sn	0.000000	2.355000	2.355000
C	2.355000	4.710000	4.710000
Sn	2.355000	4.710000	2.355000
C	4.710000	7.065000	4.710000
Sn	4.710000	7.065000	2.355000
C	7.065000	9.420000	4.710000
Sn	2.355000	2.355000	4.710000
C	4.710000	4.710000	7.065000
Sn	4.710000	4.710000	4.710000
C	7.065000	7.065000	7.065000
Sn	7.065000	7.065000	4.710000
C	9.420000	9.420000	7.065000
Sn	4.710000	2.355000	7.065000
C	7.065000	4.710000	9.420000
Sn	7.065000	4.710000	7.065000
C	9.420000	7.065000	9.420000
Sn	9.420000	7.065000	7.065000
C	11.775000	9.420000	9.420000
Sn	0.000000	4.710000	4.710000
C	2.355000	7.065000	7.065000
Sn	2.355000	7.065000	4.710000
C	4.710000	9.420000	7.065000
Sn	4.710000	9.420000	4.710000
C	7.065000	11.775000	7.065000
Sn	2.355000	4.710000	7.065000
C	4.710000	7.065000	9.420000
Sn	4.710000	7.065000	7.065000
C	7.065000	9.420000	9.420000
Sn	7.065000	9.420000	7.065000
C	9.420000	11.775000	9.420000
Sn	4.710000	4.710000	9.420000
C	7.065000	7.065000	11.775000
Sn	7.065000	7.065000	9.420000
C	9.420000	9.420000	11.775000
Sn	9.420000	9.420000	9.420000
C	11.775000	11.775000	11.775000
