54

Cu	0.000000	0.000000	0.000000
F	2.198500	2.198500	2.198500
Cu	2.198500	2.198500	0.000000
F	4.397000	4.397000	2.198500
Cu	4.397000	4.397000	0.000000
F	6.595500	6.595500	2.198500
Cu	2.198500	0.000000	2.198500
F	4.397000	2.198500	4.397000
Cu	4.397000	2.198500	2.198500
F	6.595500	4.397000	4.397000
Cu	6.595500	4.397000	2.198500
F	8.794000	6.595500	4.397000
Cu	4.397000	0.000000	4.397000
F	6.595500	2.198500	6.595500
Cu	6.595500	2.198500	4.397000
F	8.794000	4.397000	6.595500
Cu	8.794000	4.397000	4.397000
F	10.992500	6.595500	6.595500
Cu	0.000000	2.198500	2.198500
F	2.198500	4.397000	4.397000
Cu	2.198500	4.397000	2.198500
F	4.397000	6.595500	4.397000
Cu	4.397000	6.595500	2.198500
F	6.595500	8.794000	4.397000
Cu	2.198500	2.198500	4.397000
F	4.397000	4.397000	6.595500
Cu	4.397000	4.397000	4.397000
F	6.595500	6.595500	6.595500
Cu	6.595500	6.595500	4.397000
F	8.794000	8.794000	6.595500
Cu	4.397000	2.198500	6.595500
F	6.595500	4.397000	8.794000
Cu	6.595500	4.397000	6.595500
F	8.794000	6.595500	8.794000
Cu	8.794000	6.595500	6.595500
F	10.992500	8.794000	8.794000
Cu	0.000000	4.397000	4.397000
F	2.198500	6.595500	6.595500
Cu	2.198500	6.595500	4.397000
F	4.397000	8.794000	6.595500
Cu	4.397000	8.794000	4.397000
F	6.595500	10.992500	6.595500
Cu	2.198500	4.397000	6.595500
F	4.397000	6.595500	8.794000
Cu	4.397000	6.595500	6.595500
F	6.595500	8.794000	8.794000
Cu	6.595500	8.794000	6.595500
F	8.794000	10.992500	8.794000
Cu	4.397000	4.397000	8.794000
F	6.595500	6.595500	10.992500
Cu	6.595500	6.595500	8.794000
F	8.794000	8.794000	10.992500
Cu	8.794000	8.794000	8.794000
F	10.992500	10.992500	10.992500
