54

Cu	0.000000	0.000000	0.000000
I	2.760500	2.760500	2.760500
Cu	2.760500	2.760500	0.000000
I	5.521000	5.521000	2.760500
Cu	5.521000	5.521000	0.000000
I	8.281500	8.281500	2.760500
Cu	2.760500	0.000000	2.760500
I	5.521000	2.760500	5.521000
Cu	5.521000	2.760500	2.760500
I	8.281500	5.521000	5.521000
Cu	8.281500	5.521000	2.760500
I	11.042000	8.281500	5.521000
Cu	5.521000	0.000000	5.521000
I	8.281500	2.760500	8.281500
Cu	8.281500	2.760500	5.521000
I	11.042000	5.521000	8.281500
Cu	11.042000	5.521000	5.521000
I	13.802500	8.281500	8.281500
Cu	0.000000	2.760500	2.760500
I	2.760500	5.521000	5.521000
Cu	2.760500	5.521000	2.760500
I	5.521000	8.281500	5.521000
Cu	5.521000	8.281500	2.760500
I	8.281500	11.042000	5.521000
Cu	2.760500	2.760500	5.521000
I	5.521000	5.521000	8.281500
Cu	5.521000	5.521000	5.521000
I	8.281500	8.281500	8.281500
Cu	8.281500	8.281500	5.521000
I	11.042000	11.042000	8.281500
Cu	5.521000	2.760500	8.281500
I	8.281500	5.521000	11.042000
Cu	8.281500	5.521000	8.281500
I	11.042000	8.281500	11.042000
Cu	11.042000	8.281500	8.281500
I	13.802500	11.042000	11.042000
Cu	0.000000	5.521000	5.521000
I	2.760500	8.281500	8.281500
Cu	2.760500	8.281500	5.521000
I	5.521000	11.042000	8.281500
Cu	5.521000	11.042000	5.521000
I	8.281500	13.802500	8.281500
Cu	2.760500	5.521000	8.281500
I	5.521000	8.281500	11.042000
Cu	5.521000	8.281500	8.281500
I	8.281500	11.042000	11.042000
Cu	8.281500	11.042000	8.281500
I	11.042000	13.802500	11.042000
Cu	5.521000	5.521000	11.042000
I	8.281500	8.281500	13.802500
Cu	8.281500	8.281500	11.042000
I	11.042000	11.042000	13.802500
Cu	11.042000	11.042000	11.042000
I	13.802500	13.802500	13.802500
