54

K	0.000000	0.000000	0.000000
F	2.581500	2.581500	2.581500
K	2.581500	2.581500	0.000000
F	5.163000	5.163000	2.581500
K	5.163000	5.163000	0.000000
F	7.744500	7.744500	2.581500
K	2.581500	0.000000	2.581500
F	5.163000	2.581500	5.163000
K	5.163000	2.581500	2.581500
F	7.744500	5.163000	5.163000
K	7.744500	5.163000	2.581500
F	10.326000	7.744500	5.163000
K	5.163000	0.000000	5.163000
F	7.744500	2.581500	7.744500
K	7.744500	2.581500	5.163000
F	10.326000	5.163000	7.744500
K	10.326000	5.163000	5.163000
F	12.907500	7.744500	7.744500
K	0.000000	2.581500	2.581500
F	2.581500	5.163000	5.163000
K	2.581500	5.163000	2.581500
F	5.163000	7.744500	5.163000
K	5.163000	7.744500	2.581500
F	7.744500	10.326000	5.163000
K	2.581500	2.581500	5.163000
F	5.163000	5.163000	7.744500
K	5.163000	5.163000	5.163000
F	7.744500	7.744500	7.744500
K	7.744500	7.744500	5.163000
F	10.326000	10.326000	7.744500
K	5.163000	2.581500	7.744500
F	7.744500	5.163000	10.326000
K	7.744500	5.163000	7.744500
F	10.326000	7.744500	10.326000
K	10.326000	7.744500	7.744500
F	12.907500	10.326000	10.326000
K	0.000000	5.163000	5.163000
F	2.581500	7.744500	7.744500
K	2.581500	7.744500	5.163000
F	5.163000	10.326000	7.744500
K	5.163000	10.326000	5.163000
F	7.744500	12.907500	7.744500
K	2.581500	5.163000	7.744500
F	5.163000	7.744500	10.326000
K	5.163000	7.744500	7.744500
F	7.744500	10.326000	10.326000
K	7.744500	10.326000	7.744500
F	10.326000	12.907500	10.326000
K	5.163000	5.163000	10.326000
F	7.744500	7.744500	12.907500
K	7.744500	7.744500	10.326000
F	10.326000	10.326000	12.907500
K	10.326000	10.326000	10.326000
F	12.907500	12.907500	12.907500
