54

Sn	0.000000	0.000000	0.000000
Ge	2.828000	2.828000	2.828000
Sn	2.828000	2.828000	0.000000
Ge	5.656000	5.656000	2.828000
Sn	5.656000	5.656000	0.000000
Ge	8.484000	8.484000	2.828000
Sn	2.828000	0.000000	2.828000
Ge	5.656000	2.828000	5.656000
Sn	5.656000	2.828000	2.828000
Ge	8.484000	5.656000	5.656000
Sn	8.484000	5.656000	2.828000
Ge	11.312000	8.484000	5.656000
Sn	5.656000	0.000000	5.656000
Ge	8.484000	2.828000	8.484000
Sn	8.484000	2.828000	5.656000
Ge	11.312000	5.656000	8.484000
Sn	11.312000	5.656000	5.656000
Ge	14.140000	8.484000	8.484000
Sn	0.000000	2.828000	2.828000
Ge	2.828000	5.656000	5.656000
Sn	2.828000	5.656000	2.828000
Ge	5.656000	8.484000	5.656000
Sn	5.656000	8.484000	2.828000
Ge	8.484000	11.312000	5.656000
Sn	2.828000	2.828000	5.656000
Ge	5.656000	5.656000	8.484000
Sn	5.656000	5.656000	5.656000
Ge	8.484000	8.484000	8.484000
Sn	8.484000	8.484000	5.656000
Ge	11.312000	11.312000	8.484000
Sn	5.656000	2.828000	8.484000
Ge	8.484000	5.656000	11.312000
Sn	8.484000	5.656000	8.484000
Ge	11.312000	8.484000	11.312000
Sn	11.312000	8.484000	8.484000
Ge	14.140000	11.312000	11.312000
Sn	0.000000	5.656000	5.656000
Ge	2.828000	8.484000	8.484000
Sn	2.828000	8.484000	5.656000
Ge	5.656000	11.312000	8.484000
Sn	5.656000	11.312000	5.656000
Ge	8.484000	14.140000	8.484000
Sn	2.828000	5.656000	8.484000
Ge	5.656000	8.484000	11.312000
Sn	5.656000	8.484000	8.484000
Ge	8.484000	11.312000	11.312000
Sn	8.484000	11.312000	8.484000
Ge	11.312000	14.140000	11.312000
Sn	5.656000	5.656000	11.312000
Ge	8.484000	8.484000	14.140000
Sn	8.484000	8.484000	11.312000
Ge	11.312000	11.312000	14.140000
Sn	11.312000	11.312000	11.312000
Ge	14.140000	14.140000	14.140000
