54

Na	0.000000	0.000000	0.000000
I	3.130000	3.130000	3.130000
Na	3.130000	3.130000	0.000000
I	6.260000	6.260000	3.130000
Na	6.260000	6.260000	0.000000
I	9.390000	9.390000	3.130000
Na	3.130000	0.000000	3.130000
I	6.260000	3.130000	6.260000
Na	6.260000	3.130000	3.130000
I	9.390000	6.260000	6.260000
Na	9.390000	6.260000	3.130000
I	12.520000	9.390000	6.260000
Na	6.260000	0.000000	6.260000
I	9.390000	3.130000	9.390000
Na	9.390000	3.130000	6.260000
I	12.520000	6.260000	9.390000
Na	12.520000	6.260000	6.260000
I	15.650000	9.390000	9.390000
Na	0.000000	3.130000	3.130000
I	3.130000	6.260000	6.260000
Na	3.130000	6.260000	3.130000
I	6.260000	9.390000	6.260000
Na	6.260000	9.390000	3.130000
I	9.390000	12.520000	6.260000
Na	3.130000	3.130000	6.260000
I	6.260000	6.260000	9.390000
Na	6.260000	6.260000	6.260000
I	9.390000	9.390000	9.390000
Na	9.390000	9.390000	6.260000
I	12.520000	12.520000	9.390000
Na	6.260000	3.130000	9.390000
I	9.390000	6.260000	12.520000
Na	9.390000	6.260000	9.390000
I	12.520000	9.390000	12.520000
Na	12.520000	9.390000	9.390000
I	15.650000	12.520000	12.520000
Na	0.000000	6.260000	6.260000
I	3.130000	9.390000	9.390000
Na	3.130000	9.390000	6.260000
I	6.260000	12.520000	9.390000
Na	6.260000	12.520000	6.260000
I	9.390000	15.650000	9.390000
Na	3.130000	6.260000	9.390000
I	6.260000	9.390000	12.520000
Na	6.260000	9.390000	9.390000
I	9.390000	12.520000	12.520000
Na	9.390000	12.520000	9.390000
I	12.520000	15.650000	12.520000
Na	6.260000	6.260000	12.520000
I	9.390000	9.390000	15.650000
Na	9.390000	9.390000	12.520000
I	12.520000	12.520000	15.650000
Na	12.520000	12.520000	12.520000
I	15.650000	15.650000	15.650000
