54

In	0.000000	0.000000	0.000000
N	2.302000	2.302000	2.302000
In	2.302000	2.302000	0.000000
N	4.604000	4.604000	2.302000
In	4.604000	4.604000	0.000000
N	6.906000	6.906000	2.302000
In	2.302000	0.000000	2.302000
N	4.604000	2.302000	4.604000
In	4.604000	2.302000	2.302000
N	6.906000	4.604000	4.604000
In	6.906000	4.604000	2.302000
N	9.208000	6.906000	4.604000
In	4.604000	0.000000	4.604000
N	6.906000	2.302000	6.906000
In	6.906000	2.302000	4.604000
N	9.208000	4.604000	6.906000
In	9.208000	4.604000	4.604000
N	11.510000	6.906000	6.906000
In	0.000000	2.302000	2.302000
N	2.302000	4.604000	4.604000
In	2.302000	4.604000	2.302000
N	4.604000	6.906000	4.604000
In	4.604000	6.906000	2.302000
N	6.906000	9.208000	4.604000
In	2.302000	2.302000	4.604000
N	4.604000	4.604000	6.906000
In	4.604000	4.604000	4.604000
N	6.906000	6.906000	6.906000
In	6.906000	6.906000	4.604000
N	9.208000	9.208000	6.906000
In	4.604000	2.302000	6.906000
N	6.906000	4.604000	9.208000
In	6.906000	4.604000	6.906000
N	9.208000	6.906000	9.208000
In	9.208000	6.906000	6.906000
N	11.510000	9.208000	9.208000
In	0.000000	4.604000	4.604000
N	2.302000	6.906000	6.906000
In	2.302000	6.906000	4.604000
N	4.604000	9.208000	6.906000
In	4.604000	9.208000	4.604000
N	6.906000	11.510000	6.906000
In	2.302000	4.604000	6.906000
N	4.604000	6.906000	9.208000
In	4.604000	6.906000	6.906000
N	6.906000	9.208000	9.208000
In	6.906000	9.208000	6.906000
N	9.208000	11.510000	9.208000
In	4.604000	4.604000	9.208000
N	6.906000	6.906000	11.510000
In	6.906000	6.906000	9.208000
N	9.208000	9.208000	11.510000
In	9.208000	9.208000	9.208000
N	11.510000	11.510000	11.510000
