54

Rb	0.000000	0.000000	0.000000
I	3.552000	3.552000	3.552000
Rb	3.552000	3.552000	0.000000
I	7.104000	7.104000	3.552000
Rb	7.104000	7.104000	0.000000
I	10.656000	10.656000	3.552000
Rb	3.552000	0.000000	3.552000
I	7.104000	3.552000	7.104000
Rb	7.104000	3.552000	3.552000
I	10.656000	7.104000	7.104000
Rb	10.656000	7.104000	3.552000
I	14.208000	10.656000	7.104000
Rb	7.104000	0.000000	7.104000
I	10.656000	3.552000	10.656000
Rb	10.656000	3.552000	7.104000
I	14.208000	7.104000	10.656000
Rb	14.208000	7.104000	7.104000
I	17.760000	10.656000	10.656000
Rb	0.000000	3.552000	3.552000
I	3.552000	7.104000	7.104000
Rb	3.552000	7.104000	3.552000
I	7.104000	10.656000	7.104000
Rb	7.104000	10.656000	3.552000
I	10.656000	14.208000	7.104000
Rb	3.552000	3.552000	7.104000
I	7.104000	7.104000	10.656000
Rb	7.104000	7.104000	7.104000
I	10.656000	10.656000	10.656000
Rb	10.656000	10.656000	7.104000
I	14.208000	14.208000	10.656000
Rb	7.104000	3.552000	10.656000
I	10.656000	7.104000	14.208000
Rb	10.656000	7.104000	10.656000
I	14.208000	10.656000	14.208000
Rb	14.208000	10.656000	10.656000
I	17.760000	14.208000	14.208000
Rb	0.000000	7.104000	7.104000
I	3.552000	10.656000	10.656000
Rb	3.552000	10.656000	7.104000
I	7.104000	14.208000	10.656000
Rb	7.104000	14.208000	7.104000
I	10.656000	17.760000	10.656000
Rb	3.552000	7.104000	10.656000
I	7.104000	10.656000	14.208000
Rb	7.104000	10.656000	10.656000
I	10.656000	14.208000	14.208000
Rb	10.656000	14.208000	10.656000
I	14.208000	17.760000	14.208000
Rb	7.104000	7.104000	14.208000
I	10.656000	10.656000	17.760000
Rb	10.656000	10.656000	14.208000
I	14.208000	14.208000	17.760000
Rb	14.208000	14.208000	14.208000
I	17.760000	17.760000	17.760000
