54

Mg	0.000000	0.000000	0.000000
O	2.039870	2.039870	2.039870
Mg	2.039870	2.039870	0.000000
O	4.079740	4.079740	2.039870
Mg	4.079740	4.079740	0.000000
O	6.119610	6.119610	2.039870
Mg	2.039870	0.000000	2.039870
O	4.079740	2.039870	4.079740
Mg	4.079740	2.039870	2.039870
O	6.119610	4.079740	4.079740
Mg	6.119610	4.079740	2.039870
O	8.159480	6.119610	4.079740
Mg	4.079740	0.000000	4.079740
O	6.119610	2.039870	6.119610
Mg	6.119610	2.039870	4.079740
O	8.159480	4.079740	6.119610
Mg	8.159480	4.079740	4.079740
O	10.199350	6.119610	6.119610
Mg	0.000000	2.039870	2.039870
O	2.039870	4.079740	4.079740
Mg	2.039870	4.079740	2.039870
O	4.079740	6.119610	4.079740
Mg	4.079740	6.119610	2.039870
O	6.119610	8.159480	4.079740
Mg	2.039870	2.039870	4.079740
O	4.079740	4.079740	6.119610
Mg	4.079740	4.079740	4.079740
O	6.119610	6.119610	6.119610
Mg	6.119610	6.119610	4.079740
O	8.159480	8.159480	6.119610
Mg	4.079740	2.039870	6.119610
O	6.119610	4.079740	8.159480
Mg	6.119610	4.079740	6.119610
O	8.159480	6.119610	8.159480
Mg	8.159480	6.119610	6.119610
O	10.199350	8.159480	8.159480
Mg	0.000000	4.079740	4.079740
O	2.039870	6.119610	6.119610
Mg	2.039870	6.119610	4.079740
O	4.079740	8.159480	6.119610
Mg	4.079740	8.159480	4.079740
O	6.119610	10.199350	6.119610
Mg	2.039870	4.079740	6.119610
O	4.079740	6.119610	8.159480
Mg	4.079740	6.119610	6.119610
O	6.119610	8.159480	8.159480
Mg	6.119610	8.159480	6.119610
O	8.159480	10.199350	8.159480
Mg	4.079740	4.079740	8.159480
O	6.119610	6.119610	10.199350
Mg	6.119610	6.119610	8.159480
O	8.159480	8.159480	10.199350
Mg	8.159480	8.159480	8.159480
O	10.199350	10.199350	10.199350
