54

Zn	0.000000	0.000000	0.000000
O	2.106000	2.106000	2.106000
Zn	2.106000	2.106000	0.000000
O	4.212000	4.212000	2.106000
Zn	4.212000	4.212000	0.000000
O	6.318000	6.318000	2.106000
Zn	2.106000	0.000000	2.106000
O	4.212000	2.106000	4.212000
Zn	4.212000	2.106000	2.106000
O	6.318000	4.212000	4.212000
Zn	6.318000	4.212000	2.106000
O	8.424000	6.318000	4.212000
Zn	4.212000	0.000000	4.212000
O	6.318000	2.106000	6.318000
Zn	6.318000	2.106000	4.212000
O	8.424000	4.212000	6.318000
Zn	8.424000	4.212000	4.212000
O	10.530000	6.318000	6.318000
Zn	0.000000	2.106000	2.106000
O	2.106000	4.212000	4.212000
Zn	2.106000	4.212000	2.106000
O	4.212000	6.318000	4.212000
Zn	4.212000	6.318000	2.106000
O	6.318000	8.424000	4.212000
Zn	2.106000	2.106000	4.212000
O	4.212000	4.212000	6.318000
Zn	4.212000	4.212000	4.212000
O	6.318000	6.318000	6.318000
Zn	6.318000	6.318000	4.212000
O	8.424000	8.424000	6.318000
Zn	4.212000	2.106000	6.318000
O	6.318000	4.212000	8.424000
Zn	6.318000	4.212000	6.318000
O	8.424000	6.318000	8.424000
Zn	8.424000	6.318000	6.318000
O	10.530000	8.424000	8.424000
Zn	0.000000	4.212000	4.212000
O	2.106000	6.318000	6.318000
Zn	2.106000	6.318000	4.212000
O	4.212000	8.424000	6.318000
Zn	4.212000	8.424000	4.212000
O	6.318000	10.530000	6.318000
Zn	2.106000	4.212000	6.318000
O	4.212000	6.318000	8.424000
Zn	4.212000	6.318000	6.318000
O	6.318000	8.424000	8.424000
Zn	6.318000	8.424000	6.318000
O	8.424000	10.530000	8.424000
Zn	4.212000	4.212000	8.424000
O	6.318000	6.318000	10.530000
Zn	6.318000	6.318000	8.424000
O	8.424000	8.424000	10.530000
Zn	8.424000	8.424000	8.424000
O	10.530000	10.530000	10.530000
