54

Si	0.000000	0.000000	0.000000
Si	2.497500	2.497500	2.497500
Si	2.497500	2.497500	0.000000
Si	4.995000	4.995000	2.497500
Si	4.995000	4.995000	0.000000
Si	7.492500	7.492500	2.497500
Si	2.497500	0.000000	2.497500
Si	4.995000	2.497500	4.995000
Si	4.995000	2.497500	2.497500
Si	7.492500	4.995000	4.995000
Si	7.492500	4.995000	2.497500
Si	9.990000	7.492500	4.995000
Si	4.995000	0.000000	4.995000
Si	7.492500	2.497500	7.492500
Si	7.492500	2.497500	4.995000
Si	9.990000	4.995000	7.492500
Si	9.990000	4.995000	4.995000
Si	12.487500	7.492500	7.492500
Si	0.000000	2.497500	2.497500
Si	2.497500	4.995000	4.995000
Si	2.497500	4.995000	2.497500
Si	4.995000	7.492500	4.995000
Si	4.995000	7.492500	2.497500
Si	7.492500	9.990000	4.995000
Si	2.497500	2.497500	4.995000
Si	4.995000	4.995000	7.492500
Si	4.995000	4.995000	4.995000
Si	7.492500	7.492500	7.492500
Si	7.492500	7.492500	4.995000
Si	9.990000	9.990000	7.492500
Si	4.995000	2.497500	7.492500
Si	7.492500	4.995000	9.990000
Si	7.492500	4.995000	7.492500
Si	9.990000	7.492500	9.990000
Si	9.990000	7.492500	7.492500
Si	12.487500	9.990000	9.990000
Si	0.000000	4.995000	4.995000
Si	2.497500	7.492500	7.492500
Si	2.497500	7.492500	4.995000
Si	4.995000	9.990000	7.492500
Si	4.995000	9.990000	4.995000
Si	7.492500	12.487500	7.492500
Si	2.497500	4.995000	7.492500
Si	4.995000	7.492500	9.990000
Si	4.995000	7.492500	7.492500
Si	7.492500	9.990000	9.990000
Si	7.492500	9.990000	7.492500
Si	9.990000	12.487500	9.990000
Si	4.995000	4.995000	9.990000
Si	7.492500	7.492500	12.487500
Si	7.492500	7.492500	9.990000
Si	9.990000	9.990000	12.487500
Si	9.990000	9.990000	9.990000
Si	12.487500	12.487500	12.487500
